117

 C       -13.2766977858       -1.1490869822        5.1716193079
 C       -14.1148879034       -1.6444076568        4.0364786845
 O       -15.1303383601       -2.2981190444        4.1944294752
 C       -13.6011548086       -1.3790324695        2.6109079183
 C       -14.1236318233        0.1812989034        2.4332572463
 O       -13.5151462482        0.9809124716        1.7694221222
 C       -15.4071245895        0.6778739013        3.0833812289
 C       -15.0842421546        1.7307869872        4.1859836349
 C       -14.6915575476        3.1744075677        3.5167693121
 O       -15.2254768306        3.6119598449        2.5014978726
 C       -13.6528111867        3.9985690485        4.1692636901
 C       -12.2307881297        3.2150621118        3.9541775763
 O       -11.8197222848        2.5177030019        4.8715749979
 C       -11.4384692562        3.4100318597        2.6858434525
 C       -10.3240610418        2.2898488485        2.6607403251
 C        -9.3118183984        2.7131823083        1.6304040846
 O        -9.4355627162        3.7451088583        1.0458904535
 C        -7.9916774969        1.8506295305        1.4068231274
 C        -7.6949285991        1.6388401806       -0.2708160662
 O        -8.1756682223        2.4510480230       -1.0412420520
 C        -6.8302651437        0.4370822556       -0.8333211720
 C        -6.0572833808        0.7618665122       -2.0851044053
 C        -5.6425076356        2.3246619935       -2.3003277040
 O        -5.6368760002        3.1663997413       -1.4089200542
 C        -5.1521057123        2.8041354500       -3.7141563255
 C        -6.4924278741        3.1015199852       -4.5527279311
 O        -6.6031054342        2.6583914477       -5.6560757044
 C        -7.4786973383        4.0769699026       -3.8807102998
 C        -8.7687390640        4.2868824174       -4.6824203145
 C        -9.7553725132        5.1737787173       -3.9245144509
 O        -9.6560148592        5.2345887551       -2.7350615745
 C       -10.8820663148        6.0164242039       -4.5777242025
 C       -10.3509336384        7.4646808024       -4.0358417081
 O        -9.4386299339        7.9652436469       -4.6433766429
 C       -10.9645766168        8.0913739332       -2.7790312136
 C        -9.8704503379        8.7812832445       -1.9315355854
 C        -9.2228090195        7.9487167688       -0.7638618164
 O        -9.6917658556        6.9794198042       -0.2267733433
 C        -7.8708007573        8.4922491090       -0.1525171175
 C        -6.7232226719        7.5311560969       -0.7985510369
 O        -6.8465886092        6.3123018069       -0.7857627303
 C        -5.3576891861        8.1607234489       -1.2440847705
 C        -7.5790950030        9.9545763977       -0.5365884154
 C        -7.9371578986        8.3176702313        1.3579399222
 C       -10.9930052728        5.8675831864       -6.0619443621
 C       -12.2693102004        5.6089832474       -3.9455053412
 C        -4.4819882934        4.2161289578       -3.5646079687
 C        -4.5347630155        1.7243827071       -4.6350411314
 C        -6.9620749352        2.7689296222        2.0512432949
 C        -8.0416696464        0.4414562481        1.8942806960
 C       -13.5498804545        5.4422329004        3.5616113016
 C       -14.0305183728        4.1963419618        5.7330172530
 C       -12.0380335520       -1.3707284453        2.5388291257
 C       -14.2206670064       -2.3838569526        1.5548578478
 H       -12.4434160192       -0.4348880450        5.0199511452
 H       -12.7127034130       -2.0772969359        5.2656487893
 H       -13.8277820874       -0.7669046156        6.0107974441
 H       -15.8771402358       -0.0316713344        3.6728351806
 H       -16.0493513315        1.1189450001        2.2041396164
 H       -14.3017387912        1.2900605147        4.7605892593
 H       -15.8488615087        1.7247227246        4.9674643650
 H       -11.1711691445        4.4402311478        2.2687080108
 H       -11.9872748075        3.2390236107        1.7786812004
 H       -10.8541239869        1.3342993253        2.3555672760
 H        -9.7712156751        2.1099157007        3.5625535907
 H        -7.4612417869       -0.4607037676       -0.9381059163
 H        -6.1634778607        0.1495787386        0.1441553451
 H        -6.6847524420        0.3866405641       -2.9103796993
 H        -5.0802248386        0.2542421487       -2.1331223338
 H        -6.8537810039        4.8724652777       -3.4797305081
 H        -7.8066174693        3.5793036954       -3.0064993883
 H        -9.3998189112        3.3291353903       -4.8494036710
 H        -8.6012708914        4.6621212226       -5.6824199723
 H       -11.4827522503        7.3664818564       -2.1594461770
 H       -11.6204004085        8.9027623938       -3.1893011360
 H       -10.3022193909        9.6492608109       -1.3578248219
 H        -9.1763035722        9.1146475274       -2.7121150584
 H        -4.6985994967        7.3104719370       -1.4515752122
 H        -5.0154144944        8.5112023324       -0.3225593684
 H        -5.3147566785        9.0111787224       -1.9136136332
 H        -6.8176637441       10.4048906024        0.2562005505
 H        -8.4178531240       10.5705617467       -0.2624125981
 H        -7.4323231270       10.1999189429       -1.5052624904
 H        -7.6093861692        7.2339700095        1.6049744649
 H        -8.8836859940        8.4804186927        1.9043569388
 H        -7.1850397945        9.0491948933        1.8355915412
 H       -11.7278568915        6.5907891884       -6.5639359840
 H       -11.3518246045        4.9467503099       -6.3238656933
 H       -10.0113454618        6.0821594759       -6.4493703084
 H       -12.5013408922        4.5267753647       -3.9921988989
 H       -12.9924870115        6.2789571922       -4.4087862171
 H       -12.3818706312        5.8917449467       -2.8848568795
 H        -3.4190897022        4.0412231213       -3.6058129786
 H        -4.8682854395        4.7784356220       -2.6854593091
 H        -4.5096310965        4.8956646589       -4.4122179736
 H        -3.5908531336        1.4455322388       -4.2168177989
 H        -4.3259318992        2.1996296092       -5.5964729500
 H        -5.0792152123        0.8630136470       -4.5252376524
 H        -7.3078891411        2.9805009774        3.0713641410
 H        -7.0132268398        3.6866330306        1.5187892058
 H        -5.9311123867        2.3660943518        2.2188269982
 H        -8.9018141612       -0.2381652956        1.5237999266
 H        -8.2637279745        0.4482736657        3.0547095641
 H        -7.1098647755       -0.1924668624        1.8148331190
 H       -13.3366044862        6.2593688316        4.2006060741
 H       -14.5305821747        5.5577342662        3.0152507655
 H       -12.6836579424        5.4073530920        2.9102990304
 H       -15.0821083567        4.1623367787        5.8844434952
 H       -13.6884545214        5.1903769470        5.9960319515
 H       -13.7171767834        3.3479022681        6.3180796486
 H       -11.8107841652       -1.6377704907        1.5054649061
 H       -11.5932875033       -2.0424063891        3.3865161650
 H       -11.7385360411       -0.2725782683        2.6811873390
 H       -13.7164483825       -1.8858995502        0.6658351652
 H       -15.3202263765       -2.4928335940        1.4894580141
 H       -13.8552409746       -3.4089737775        1.6863364958
 Na       -8.8944027278        4.9851431715       -0.6529472659
