117

 C       -12.9614284653       -1.2754193362        5.1788423847
 C       -13.7995862037       -1.5519376748        4.0084951674
 O       -14.7570759036       -2.2548066981        4.2030341600
 C       -13.5716946317       -1.1008771942        2.5771141823
 C       -13.8174709431        0.5372552945        2.2890352663
 O       -13.0127159522        1.2484763992        1.7079829741
 C       -15.2958858009        1.1447183889        2.7079219352
 C       -15.2221138385        2.1180243439        3.9011518398
 C       -14.5921752119        3.4560293858        3.4123739493
 O       -14.8295317513        3.7546101047        2.2182319910
 C       -13.7630085122        4.3275492901        4.4153670099
 C       -12.2095312085        3.8912298410        4.2252787536
 O       -11.4980491424        3.5358610491        5.1498948120
 C       -11.7452150679        3.7491668092        2.7752580373
 C       -10.5210351672        2.7350301854        2.5772596784
 C        -9.4015552244        3.1532204178        1.7604933068
 O        -9.2176697742        4.3313914179        1.5792436012
 C        -8.1763663949        2.0938887738        1.4483221829
 C        -8.0683552663        1.7097962419       -0.0855362423
 O        -8.8617984812        2.2174724513       -0.8561117271
 C        -7.2052042740        0.4909709209       -0.5765771433
 C        -6.6725786201        0.7786986390       -1.9707027195
 C        -5.8439480868        2.1078465019       -2.0561206555
 O        -5.4554434682        2.6969987904       -1.0562432683
 C        -5.3415340789        2.4908820383       -3.4780890542
 C        -6.5595331362        2.1151590419       -4.3900811607
 O        -6.4958232297        1.2888567182       -5.2121649868
 C        -7.9578111080        2.9537341184       -3.8038858012
 C        -8.9329064983        3.6877186463       -4.7442248295
 C        -9.7144598105        4.8295286910       -4.0006964403
 O        -9.6767014574        4.9796874642       -2.7841297083
 C       -10.7562650432        5.8520654057       -4.8016907016
 C       -10.2302856415        7.1946498309       -4.2086475252
 O        -9.1773656972        7.6774562108       -4.6565571093
 C       -10.9255170332        7.9881621762       -2.9679703288
 C        -9.7491532936        8.8139095085       -2.1964542668
 C        -9.1349357099        8.0182548252       -1.0139430752
 O        -9.7842779721        7.0861866135       -0.5097130651
 C        -7.7801708700        8.5166925053       -0.4876301605
 C        -6.7539586287        7.3661673380       -1.0076144848
 O        -7.0092327412        6.2179703255       -0.7843751293
 C        -5.4078510769        7.7358841705       -1.7509589336
 C        -7.1714989682       10.0281685706       -0.6743226661
 C        -7.8758352852        8.3251259449        1.1319868487
 C       -10.8009336299        6.0575995934       -6.4292471587
 C       -12.2372538928        5.4938227741       -4.3056896189
 C        -4.8730072917        3.9215843481       -3.6059461405
 C        -4.1278230249        1.5671408183       -3.8607832807
 C        -6.7440841193        2.7878755313        2.0592468298
 C        -8.3712566567        0.7445422627        2.1906271978
 C       -13.7288639860        5.7873425116        3.8308445735
 C       -14.3288488990        4.2935534407        5.8446958901
 C       -12.0969645917       -1.3423750170        2.1879798018
 C       -14.5357728730       -1.6794327384        1.5490927138
 H       -13.2666721135       -0.4530932684        5.8721498271
 H       -11.8726721511       -0.9597003459        4.8295793729
 H       -13.0537499140       -2.1664238193        5.7197715046
 H       -15.8031887083        0.3016702643        3.0645002890
 H       -15.7634921687        1.7268518061        1.8848156899
 H       -14.5921400613        1.6403294568        4.6365207249
 H       -16.2301821087        2.3147068290        4.3436679786
 H       -11.3688714417        4.7619847698        2.2991327010
 H       -12.6517246048        3.6672709256        2.1860130376
 H       -10.7079570247        1.6626392232        2.4500730485
 H       -10.0973131251        2.9232261277        3.5164615948
 H        -7.8992677148       -0.4023759025       -0.6407745355
 H        -6.2906210884        0.3036485897        0.1065571151
 H        -7.3965348755        0.7304791834       -2.8102438027
 H        -6.0235578871       -0.0859101004       -2.2047104942
 H        -7.5963564938        3.5903566763       -3.0358843263
 H        -8.5136301658        2.2241094701       -3.3161711846
 H        -9.6842974846        3.0095143428       -5.3001486316
 H        -8.4983553984        4.2382220833       -5.5492862855
 H       -11.4027390729        7.3867181491       -2.1405799189
 H       -11.5753912674        8.7733806759       -3.4343860956
 H       -10.3865122562        9.6393800319       -1.7064609428
 H        -9.0198588660        9.2661699330       -2.9085798688
 H        -4.8910307217        6.7481123941       -1.7970712452
 H        -4.8543287772        8.2377925024       -1.0766477818
 H        -5.4708820271        8.3127203528       -2.7122792844
 H        -6.1141807901       10.0502870460       -0.7818328024
 H        -7.3443244213       10.4757944210        0.2730540879
 H        -7.5836160579       10.7494305105       -1.3864066042
 H        -8.8670489559        7.7561404128        1.3903798081
 H        -7.7528859480        9.2098153082        1.7123594657
 H        -7.1288534577        7.4744573945        1.5051920015
 H       -11.6963941389        6.6661994568       -6.7093867983
 H       -10.9286391654        5.0664675544       -6.8132207666
 H        -9.9162295969        6.5521385612       -6.8892858280
 H       -12.6880469412        4.7119484862       -4.9125548396
 H       -12.8494061968        6.3846506019       -4.4576235843
 H       -12.2473857696        5.2356585470       -3.2770132806
 H        -4.3307402379        4.3826645327       -2.8262425616
 H        -5.7841912748        4.4703045746       -3.7226370709
 H        -4.3288667808        4.0864360296       -4.5439822817
 H        -3.3172706345        1.4762730791       -3.1142030791
 H        -3.7751789695        1.9022759411       -4.8973339248
 H        -4.4994344645        0.5583993141       -4.0177979742
 H        -6.6989851427        2.9472278740        3.1951389450
 H        -6.5874114907        3.7255933681        1.4538194613
 H        -5.8854003740        2.1709975372        1.6036313143
 H        -9.2766298994       -0.0029654065        1.8029175385
 H        -8.5565005632        0.8113736127        3.3152745274
 H        -7.6177158668        0.1167781533        1.8065452776
 H       -12.7114196567        6.1357478011        3.8288471856
 H       -14.3317088187        6.4623577497        4.4742526456
 H       -14.1447519365        5.7895888390        2.8785892429
 H       -14.1580149207        5.2210089062        6.3699590654
 H       -13.6559227515        3.5846135366        6.4285919275
 H       -15.3907494229        4.3211496884        5.9163784999
 H       -11.7926373826       -0.5267394546        1.6541858369
 H       -12.0713339956       -2.2249171976        1.5362085531
 H       -11.6619846162       -1.4875630875        3.1985182461
 H       -14.3516762507       -1.0730700864        0.5764676085
 H       -15.5496793998       -1.5649230711        2.0192773701
 H       -14.1839960837       -2.7472431310        1.3860661236
 Na       -8.5829285000        4.7730593662       -0.5341830179
