117

 C       -12.5842343005       -0.7646306837        4.7072766069
 C       -13.7502669723       -1.3099131942        3.7407464680
 O       -14.7669188414       -1.8447786380        4.1657027800
 C       -13.5763255430       -0.9373741711        2.1592325674
 C       -13.7348952067        0.6009541845        2.3140305110
 O       -12.7192147351        1.2332309978        2.5822450517
 C       -15.1143310283        1.3631641065        2.6232716761
 C       -14.8787318616        2.3373779303        3.8310483783
 C       -14.4735471135        3.8019106974        3.3425700946
 O       -14.5506072182        4.1423741013        2.2106473935
 C       -13.8737610924        4.7427778662        4.4702308664
 C       -12.3171062615        4.4650333830        4.5930724331
 O       -11.8041764798        4.2152085034        5.6447730419
 C       -11.4370652320        4.5428704077        3.1725946621
 C       -10.2301702368        3.5305943503        3.1801306100
 C        -9.2186714789        3.4647675708        2.0422860146
 O        -9.0313573066        4.4721533775        1.2569106090
 C        -8.2732575977        2.2265203371        1.9422902318
 C        -8.1278999025        1.8021336832        0.4248311366
 O        -8.2659790631        2.5829400402       -0.4376597697
 C        -7.5687962987        0.3773164657        0.1126912767
 C        -7.0917431117        0.4377668262       -1.3554473997
 C        -6.2124224890        1.7058393166       -1.6834137281
 O        -5.6191131993        2.2707485517       -0.8176145664
 C        -5.9129492669        1.9355735794       -3.2547435917
 C        -7.2513196945        1.6192724026       -4.0179644848
 O        -7.1166935372        0.9331315088       -5.0361328902
 C        -8.5967196714        2.3676726075       -3.7915137275
 C        -8.3732021661        3.8893997908       -4.3005625873
 C        -9.6538274452        4.6717864563       -4.0111424331
 O       -10.0984971190        4.4475287436       -2.8797462443
 C       -10.3259346301        5.5733157860       -5.0905475245
 C        -9.7997900241        7.0458525115       -4.4943802422
 O        -8.7485876934        7.4175268111       -4.8948810170
 C       -10.6243625740        7.8559075268       -3.4384649800
 C        -9.7267758801        8.7434175887       -2.5008583804
 C        -9.1166460933        7.9659494652       -1.3930529114
 O        -9.7471682096        6.9848244333       -1.0166495932
 C        -7.5538233014        8.3333634392       -0.7956199884
 C        -6.6798034628        7.2640615340       -1.5790813576
 O        -6.7931321903        6.0566365663       -1.4546311551
 C        -5.3567672496        7.6500592897       -2.1731240422
 C        -7.2906072063        9.7534344082       -0.9331308980
 C        -7.6757625118        7.9144700610        0.7079584961
 C        -9.9365267003        5.4464958329       -6.6241870785
 C       -11.8134359252        5.1852251840       -4.8048695586
 C        -5.4677127316        3.3371955401       -3.5021149380
 C        -4.6638238559        1.0165850087       -3.5815511749
 C        -6.8662519461        2.7457049809        2.3151055076
 C        -8.5544336042        1.2321829535        3.0422883295
 C       -13.9895254019        6.2906048684        4.0098610764
 C       -14.6767454130        4.6839835817        5.7816806175
 C       -12.2115566858       -1.3181621019        1.4809844406
 C       -14.8124805550       -1.6565161492        1.3561594471
 H       -12.7515297017       -1.3167555093        5.6682970290
 H       -12.5575876803        0.2391544042        4.9327375907
 H       -11.5403510536       -1.0482716046        4.2245774348
 H       -16.1204199135        0.7624936827        2.7531201303
 H       -15.2212313570        2.0222749157        1.7339932157
 H       -14.0711101212        1.9014980564        4.4520570171
 H       -15.7986253861        2.3937272046        4.3439669868
 H       -11.0455913797        5.5712283255        2.9374072617
 H       -12.2757369044        4.3777206716        2.3955506929
 H       -10.7758124283        2.5975099272        3.2985513827
 H        -9.6552865323        3.7146639850        4.0429634115
 H        -8.3973243600       -0.4451355473        0.2697284169
 H        -6.7351689239        0.2773015235        0.7702961363
 H        -8.0196001873        0.5146607740       -1.9772585867
 H        -6.6542467253       -0.4771563254       -1.8038418841
 H        -8.8951900550        2.3881625482       -2.7956765637
 H        -9.1788806058        1.7554863464       -4.4009457369
 H        -8.1194685754        3.9221311066       -5.3648310370
 H        -7.5743044311        4.4396219735       -3.7156407701
 H       -11.2298211526        7.1010280975       -2.7957600336
 H       -11.3361855230        8.4336526618       -4.0560859612
 H       -10.3395546504        9.6160850821       -2.0691022970
 H        -9.0432971944        9.2758474791       -3.2018095720
 H        -4.8276082696        6.7717428759       -2.4077629360
 H        -4.7313784985        8.3552143609       -1.4772626324
 H        -5.5706710339        8.1496726732       -3.0821231084
 H        -6.1586682223        9.9686185230       -1.1334774951
 H        -7.8169376725       10.3071443551       -0.2228949661
 H        -7.6430772387       10.0332896474       -1.8670550945
 H        -7.8401827746        6.7802558161        0.8320701005
 H        -8.5317074198        8.5651583178        1.1875131145
 H        -6.7198851813        8.2565303652        1.2144971784
 H       -10.6535542019        5.9950542528       -7.1749050874
 H        -9.7391032381        4.3784199453       -6.9621418490
 H        -8.9530565143        5.8949982569       -6.7323086143
 H       -12.0234980230        4.1639036375       -5.0181706294
 H       -12.4193798124        5.7024931885       -5.5093666870
 H       -12.0265568905        5.3841253144       -3.7867610259
 H        -4.4398722807        3.5819564042       -3.3931270497
 H        -5.8004328297        3.8748362133       -2.6805134671
 H        -5.8433733875        3.6763744376       -4.4244844196
 H        -3.9099194235        1.3594645478       -2.8812783924
 H        -4.2803354571        1.3405297318       -4.5214568936
 H        -4.7422265388       -0.0542795904       -3.8854833985
 H        -6.9537967167        3.2532552570        3.3373501971
 H        -6.3091622072        3.3718890297        1.5319468271
 H        -6.2130026464        1.8205608452        2.4854495579
 H        -9.6198505875        1.1007662282        3.0201251392
 H        -8.3708288268        1.7079790144        4.0943702567
 H        -7.9010384375        0.2430963912        3.3225765762
 H       -14.2237126273        6.9302746647        4.8587267192
 H       -14.7118036164        6.3683546894        3.3014437563
 H       -13.1492433724        6.4835355887        3.3633989313
 H       -14.1244795440        5.0372771731        6.6767904288
 H       -14.8826677943        3.6666129256        5.9166416056
 H       -15.7239316598        5.0949392003        5.8221566763
 H       -11.9468857826       -0.5172176332        0.6844748731
 H       -12.4035661324       -2.3112734952        1.1071157933
 H       -11.5061956957       -1.4109742496        2.2545490521
 H       -14.7798426427       -1.2234635429        0.3144113656
 H       -15.8296277829       -1.4276882789        1.8279939214
 H       -14.4537676581       -2.7278802389        1.3709707336
 Na       -8.7186884096        4.6836603104       -0.8983845817
