117

 C       -12.5360958463       -0.9172291063        4.6404533138
 C       -13.6953375329       -1.2712546428        3.6606228338
 O       -14.6967200289       -1.7457254408        4.1326481164
 C       -13.6066536141       -0.8846990354        2.1650697370
 C       -13.6556210755        0.7254706990        2.3804757766
 O       -12.5881643928        1.2292580257        2.5435347083
 C       -14.9414306714        1.4966471387        2.5329035735
 C       -14.9476135307        2.4647469546        3.8379652236
 C       -14.4734273866        3.8453653696        3.4253848414
 O       -14.5433531977        4.1628824026        2.2493639826
 C       -13.9100081022        4.7636355383        4.4276250547
 C       -12.3631736006        4.5142769127        4.5698206992
 O       -11.8923394588        4.3457052341        5.6858910847
 C       -11.3909102762        4.6644173860        3.4033709952
 C       -10.1850030386        3.7142225681        3.4367002362
 C        -9.2429386874        3.5832420277        2.1597691094
 O        -9.0309610915        4.4631950887        1.3544901169
 C        -8.3092756785        2.3350213281        2.0492303329
 C        -8.0642393362        1.8156371613        0.5695831196
 O        -8.1840353616        2.4951623940       -0.4544487240
 C        -7.5572559693        0.3645044135        0.2071287163
 C        -7.2452941742        0.2849977669       -1.2857306402
 C        -6.2019058159        1.4112741587       -1.6336455052
 O        -5.7197771319        2.1594408744       -0.8239435704
 C        -5.9344409790        1.8286713655       -3.1518506988
 C        -7.1932608503        1.5672962133       -4.1008706664
 O        -7.2018587898        0.7952603987       -4.9996483238
 C        -8.5260405234        2.3437187635       -3.7815684066
 C        -8.4184118322        3.8067475213       -4.1681937709
 C        -9.7752939293        4.5668689967       -3.9758538209
 O       -10.2203421729        4.7671259458       -2.8795708290
 C       -10.3711298624        5.5089020342       -5.0956552795
 C        -9.8364131995        6.9566329466       -4.4986132186
 O        -8.7305415837        7.2284882635       -4.8663168505
 C       -10.5511663997        7.9582502597       -3.4812841034
 C        -9.6280278336        8.8389068687       -2.6071240349
 C        -9.0940213531        7.9305840405       -1.5281739370
 O        -9.7280756305        7.0182158245       -1.0377291695
 C        -7.7150487591        8.2628043013       -0.9846940089
 C        -6.6767851310        7.1261077587       -1.6373867326
 O        -6.9950631976        5.9427992163       -1.7379390671
 C        -5.3727033467        7.8027712204       -2.1765215358
 C        -7.1214760892        9.6736803690       -1.0362858337
 C        -7.7227085075        7.7729520979        0.5732366725
 C        -9.7347521237        5.2619052053       -6.4395710213
 C       -11.9705908299        5.2631574972       -5.2132712714
 C        -5.2444644658        3.1905656160       -3.3517236730
 C        -4.8179392566        0.7701864881       -3.4848956338
 C        -6.7514268452        2.9802622570        2.5116075064
 C        -8.6116853511        1.2288829833        3.0618803483
 C       -14.0026811471        6.2844218906        3.8543399772
 C       -14.7293013503        4.7480524138        5.7906525379
 C       -12.3592256899       -1.2517487555        1.4231986947
 C       -14.8769859450       -1.4554569793        1.4162197497
 H       -12.5543137158       -1.6229675267        5.4630912219
 H       -12.8960751801        0.0181720039        5.0895970789
 H       -11.5972278294       -0.7015141096        4.2315352584
 H       -15.8067570748        0.8369495095        2.6805686914
 H       -15.0707489723        2.0471730138        1.4680578898
 H       -14.1805554605        2.0963987978        4.4859618834
 H       -15.9160214387        2.3117269199        4.2660556500
 H       -10.9187803759        5.6225633731        3.5402450582
 H       -12.0331988534        4.7536275569        2.4870711030
 H       -10.6638957244        2.7838507724        3.5915895529
 H        -9.5626563292        3.9128813707        4.3424369107
 H        -8.3896518184       -0.1842958927        0.3780743662
 H        -6.6594032970       -0.0138641962        0.7543227824
 H        -8.0694542344        0.1390701785       -1.9688976727
 H        -6.7053992216       -0.6815385422       -1.4161248868
 H        -8.7613124005        2.2853714949       -2.7374698363
 H        -9.1602699495        1.7059943019       -4.4202440955
 H        -8.1352199894        3.8743893963       -5.1884992453
 H        -7.6654172144        4.3800758792       -3.5168072727
 H       -11.0770128206        7.3443867533       -2.8017809245
 H       -11.3122460462        8.5196623912       -4.0739876254
 H       -10.1439642327        9.7374832616       -2.3408416841
 H        -8.8328090027        9.2438743662       -3.3047240321
 H        -4.6936395385        7.0415070969       -2.6850450083
 H        -4.8552095361        8.3458952112       -1.4430540206
 H        -5.7262399562        8.4281475569       -2.9688035918
 H        -6.0859564084        9.7345593827       -1.4223355886
 H        -7.3520768062       10.1289960455       -0.0539554368
 H        -7.6148786705       10.2930256289       -1.7734798948
 H        -7.3835837195        6.6843310636        0.7808990394
 H        -8.6702649262        7.8988178561        0.9708653979
 H        -7.0657588061        8.5519415249        1.1232064053
 H       -10.4880305999        5.6954999863       -7.1883543813
 H        -9.5248167257        4.2587108317       -6.6072476488
 H        -8.7823680619        5.7357949748       -6.5304062481
 H       -12.1300914928        4.2830989148       -5.6418326697
 H       -12.3459105441        5.9385244925       -5.9578584188
 H       -12.4791283526        5.2845848253       -4.2400501075
 H        -4.2194881318        3.2263259959       -2.9563300709
 H        -5.6488214214        4.0679032015       -2.8095644348
 H        -5.2711189818        3.2864910332       -4.3792008361
 H        -3.9915095547        0.8787425949       -2.8193626842
 H        -4.3831430429        1.0185450461       -4.4360847292
 H        -5.1794757216       -0.2004114792       -3.7707307991
 H        -6.8761137033        3.3945722847        3.5568700156
 H        -6.5588461463        3.8046188433        1.8226388175
 H        -5.8477814640        2.2777246141        2.4715861674
 H        -9.6426858896        0.7541294944        2.7916185150
 H        -8.6317065236        1.5091932035        4.1120786245
 H        -7.7903310561        0.5801466316        3.1848450169
 H       -14.3343947435        6.9238279795        4.5852891981
 H       -14.6531883206        6.3154425035        2.9697959356
 H       -13.0228617288        6.4633862849        3.3465078907
 H       -14.3506109060        5.4721875797        6.4655352479
 H       -14.4716598978        3.8065263953        6.2067981637
 H       -15.7859514843        4.6338041692        5.8221926331
 H       -12.3340539983       -0.6857469595        0.4614060743
 H       -12.3896642510       -2.4298249136        1.4046938881
 H       -11.5358944642       -0.9739901425        2.1742753825
 H       -14.9772173780       -0.8848524691        0.4211414947
 H       -15.7780907629       -1.2593827776        2.0583190407
 H       -14.6347789131       -2.5276943652        1.3366079563
 Na       -8.6128386454        4.7400057693       -1.0359781909
