117

 C       -12.4627464358       -1.0978841520        4.5487625211
 C       -13.6905575012       -1.2821170711        3.7056182795
 O       -14.7301246017       -1.7571227436        4.1438108366
 C       -13.6223945261       -0.7453892205        2.1887289116
 C       -13.5378657967        0.8872240517        2.4166578440
 O       -12.3957063972        1.3527348664        2.4983918060
 C       -14.8550324406        1.5462467211        2.5261474069
 C       -14.9455121733        2.4424858013        3.7771854626
 C       -14.4200735613        3.8512466165        3.3145137827
 O       -14.5617476132        4.2139600388        2.1376976303
 C       -13.8276999442        4.9003282147        4.3895398683
 C       -12.3237556257        4.6745579738        4.6995593998
 O       -11.9762989009        4.3485243811        5.8030519791
 C       -11.2981198898        4.8001907468        3.4310742110
 C       -10.1431045495        3.7873647189        3.5267633632
 C        -9.2169191421        3.7411414616        2.2662392945
 O        -9.2857985805        4.6270932004        1.5214682989
 C        -8.1448400745        2.4163509355        2.1404569584
 C        -8.0245214166        1.8526401907        0.6787516426
 O        -8.3404486331        2.6056257683       -0.2757555674
 C        -7.5811745376        0.3618679214        0.4114148275
 C        -7.1873530853        0.2164114828       -1.1057560545
 C        -6.2962246999        1.3595601374       -1.5963610827
 O        -5.7025432286        1.9750382803       -0.7012860625
 C        -5.8795324960        1.6018270341       -3.2125384617
 C        -7.1337729707        1.4927487142       -4.1118072102
 O        -7.1600123021        0.6304611737       -4.9764458682
 C        -8.5028776110        2.3913644100       -3.7308513568
 C        -8.5211872768        3.8347968385       -4.0704218554
 C        -9.8440488250        4.6844309735       -3.8224462174
 O       -10.2997573798        4.9069417658       -2.7061526494
 C       -10.3911103855        5.5178298660       -5.1267098640
 C        -9.8781302244        6.8782659534       -4.6352749545
 O        -8.6552933651        7.1196836638       -4.7768032586
 C       -10.6901348634        7.8600690131       -3.7121361959
 C        -9.6105249258        8.6434233949       -2.8809706957
 C        -9.0024284166        7.8916774162       -1.6074060320
 O        -9.7434042007        7.0416902445       -1.1480331570
 C        -7.6072522558        8.1346387372       -0.9551001606
 C        -6.6817395414        7.2170548533       -1.7550456478
 O        -6.9627858569        6.0578940321       -2.0550120690
 C        -5.3905420268        7.6928548998       -2.3088189500
 C        -7.1531181392        9.6244870695       -1.0930211595
 C        -7.6562209674        7.6010385301        0.5539286539
 C        -9.6140627428        5.1117163811       -6.3691139842
 C       -11.9262383144        5.4965946460       -5.4721793334
 C        -5.2074324645        2.9930872158       -3.1329030217
 C        -4.9728139965        0.3375218032       -3.5507727109
 C        -6.8374494457        3.0849833427        2.5797450504
 C        -8.5909183083        1.1139334739        3.0024178019
 C       -14.0828069426        6.3535537511        3.7471702180
 C       -14.5819840044        4.8022664074        5.7436123659
 C       -12.4178932817       -1.2391080292        1.3890426057
 C       -14.9941812838       -1.1997684700        1.4595168312
 H       -12.1171610246       -1.8608595306        5.1551832229
 H       -12.7605580776       -0.2357293100        5.2366635943
 H       -11.8136942768       -0.6539416540        3.8868970887
 H       -15.6378511569        0.8381084930        2.6252124071
 H       -15.0731313614        2.1430107986        1.5640407255
 H       -14.4519431685        2.0641918271        4.6478496722
 H       -16.0637641983        2.3945264547        3.9107902319
 H       -10.7651082384        5.7641708903        3.4978605040
 H       -11.8989781523        4.7233994943        2.5661858631
 H       -10.6627263806        2.8239845870        3.7381794378
 H        -9.4420721861        3.9575157481        4.4312848896
 H        -8.4411076424       -0.2249333643        0.6229713205
 H        -6.7521107786        0.1079214074        1.0874678907
 H        -8.0436939001        0.0007961473       -1.7268590369
 H        -6.5952156822       -0.6916749838       -1.2415438025
 H        -8.4784083256        2.3355513048       -2.5840036779
 H        -9.2626589890        1.6854210646       -4.1647671175
 H        -8.2500186306        3.9462907631       -5.1362143612
 H        -7.8104252803        4.3476921614       -3.4595281842
 H       -11.4248828290        7.3950691497       -3.1233671874
 H       -11.2039787240        8.5622908348       -4.3491594359
 H       -10.0989756672        9.5568990122       -2.6825984512
 H        -8.9298082919        8.9984351628       -3.6172729168
 H        -5.0406485124        6.7661369556       -2.7965107353
 H        -4.8513700858        7.7767973464       -1.4238451516
 H        -5.2631502655        8.5636447755       -2.9999158343
 H        -6.1947971608        9.8135295250       -1.3394576308
 H        -7.5539552612       10.1105787974       -0.1612215301
 H        -7.7494098294       10.1344072297       -1.9572433188
 H        -7.3264025463        6.6433123567        0.7204935735
 H        -8.7155435494        7.6267217828        0.7309874417
 H        -7.2737397304        8.3199194181        1.1983205459
 H       -10.0721063615        5.6204509591       -7.2137868387
 H        -9.6379387602        4.0662270555       -6.5539307881
 H        -8.5590342263        5.3638533881       -6.2768180532
 H       -12.0879453421        4.5743328188       -6.0754657996
 H       -12.1259890814        6.3656306049       -6.1495083155
 H       -12.5750837064        5.4338989620       -4.5839350979
 H        -4.5286690848        3.0305664666       -2.2801174277
 H        -5.8867274106        3.8653995438       -2.9140886350
 H        -4.6635521536        3.1851765617       -4.1141304120
 H        -4.0979641565        0.2452518744       -2.9388536463
 H        -4.5692011984        0.2999095891       -4.5883940367
 H        -5.5953384463       -0.4919622719       -3.6051405863
 H        -6.8462915466        3.3667224574        3.6078354211
 H        -6.9221424984        3.9953083776        1.9823345197
 H        -5.9144686150        2.6331896883        2.3313798782
 H        -9.4230783875        0.7263798755        2.3852154036
 H        -8.8716436461        1.1454176275        4.0144056860
 H        -7.7552330052        0.5084136595        3.1058627197
 H       -14.4586367768        7.0726245576        4.4961867272
 H       -14.8102625307        6.3033092137        2.8490076638
 H       -13.1578055737        6.5918357640        3.2793714790
 H       -14.5903111424        5.7038528943        6.2699187407
 H       -14.0693220781        4.0677197780        6.4108596098
 H       -15.4874888680        4.2781753277        5.7116257018
 H       -12.6709031698       -1.0384277647        0.3589870366
 H       -12.1878471419       -2.2838660488        1.7296245380
 H       -11.5417305535       -0.5500817001        1.7411268856
 H       -15.1725499698       -0.6385727202        0.5680637731
 H       -15.7856774213       -1.0347090770        2.1578596207
 H       -14.8891588293       -2.2726102455        1.3647495478
 Na       -8.6815129529        4.7855614355       -1.0662419289
