117

 C       -12.3514977422       -1.2197486040        4.4860293469
 C       -13.6822190091       -1.2577147313        3.7167897746
 O       -14.7050491026       -1.7747966271        4.1258140303
 C       -13.6527160571       -0.6730787745        2.1957852346
 C       -13.4875118588        0.8713579199        2.3980015994
 O       -12.3909029986        1.4603629009        2.4693302979
 C       -14.8373097548        1.5842891715        2.5760498188
 C       -14.8161354667        2.6415811896        3.7066424149
 C       -14.3766568807        4.0000143316        3.2535572320
 O       -14.4839675541        4.2702622177        2.0939953443
 C       -13.8167804917        5.0401255046        4.3295067890
 C       -12.2677522894        4.7193464781        4.6564744315
 O       -11.8949973119        4.3692493868        5.7356932979
 C       -11.2309347154        4.8522165697        3.5548167361
 C       -10.1479702793        3.7391251550        3.6911970317
 C        -9.3640143382        3.6883715469        2.3791905101
 O        -9.3765541837        4.6073697129        1.5453550710
 C        -8.2402848144        2.6210379352        2.1505702835
 C        -8.1281106791        2.0410840424        0.6963635756
 O        -8.5048090629        2.7093347148       -0.2177906988
 C        -7.6259551030        0.5928923087        0.5065011750
 C        -7.1877994716        0.1294301826       -0.9517635839
 C        -6.2202971261        1.1740894625       -1.4938186029
 O        -5.6396253664        1.8915616351       -0.6914295424
 C        -5.9391684133        1.2696600700       -2.9597685016
 C        -7.2239356212        1.4492454647       -3.9134271453
 O        -7.2673538772        0.7135998133       -4.9080060491
 C        -8.4575521076        2.3217917310       -3.6023488827
 C        -8.4999266506        3.8798738151       -3.9253960188
 C        -9.8735650349        4.6175762544       -3.8318050673
 O       -10.3561861868        4.8566034981       -2.7207426878
 C       -10.3613033625        5.4504437656       -5.1788309281
 C        -9.7187475310        6.8418912908       -4.6719408413
 O        -8.5422014676        7.0508441326       -4.8082476376
 C       -10.5733529972        7.8101093151       -3.8607629969
 C        -9.5876468421        8.6055453918       -2.9786369828
 C        -9.1555839015        7.8056404131       -1.7518268548
 O        -9.8338441288        6.9383519742       -1.2067355544
 C        -7.6972060657        8.0926536268       -1.0831263929
 C        -6.5608858151        7.1590892419       -2.0026047670
 O        -7.0497607690        6.0922084364       -2.2172280822
 C        -5.1425767984        7.6152811254       -2.5138106314
 C        -7.3202555856        9.6178091507       -1.0493823619
 C        -7.5732984530        7.5422907725        0.3653444943
 C        -9.5910069448        5.0449814174       -6.5120533276
 C       -11.8150899615        5.6625795037       -5.4914321459
 C        -5.1281767012        2.6303989121       -3.0968990858
 C        -5.1396345127        0.1649188107       -3.4847377582
 C        -6.9279021007        3.0969148539        2.6635290725
 C        -8.5352136892        1.2699153742        3.0427039043
 C       -14.0937364143        6.4157504382        3.7150479642
 C       -14.5495704990        4.8556780560        5.6412320423
 C       -12.4325323035       -1.2922069874        1.3864003505
 C       -14.9834613703       -0.9638035692        1.5005764092
 H       -12.1159379827       -2.2783060987        4.6297892192
 H       -12.3657130423       -0.8308051020        5.4536763258
 H       -11.6051899446       -0.6555225336        3.7926537177
 H       -15.7805891380        0.9983864650        2.7020170293
 H       -14.9742740736        2.0991118498        1.7257446402
 H       -14.3769186602        2.3476673031        4.7049794805
 H       -15.9206084799        2.7766620846        3.8532146245
 H       -10.6982834283        5.8540912243        3.5485369974
 H       -11.8067726141        4.5866605027        2.6659926089
 H       -10.7729567680        2.7817904400        3.8816044402
 H        -9.3242912607        3.7410016367        4.4297596126
 H        -8.4330095164       -0.1773545048        0.9470293607
 H        -6.8049324396        0.6318753480        1.1660354780
 H        -8.0962802411        0.2639070244       -1.5642569956
 H        -6.9883481281       -0.9200433425       -1.0093953154
 H        -8.6072191278        2.0674953106       -2.4883379572
 H        -9.1758639546        1.7621874059       -4.2251691699
 H        -8.1887213168        3.9283146298       -4.9905298788
 H        -7.9073844563        4.4967519656       -3.3204455001
 H       -11.2476933684        7.2565595753       -3.1433645913
 H       -11.2365770480        8.3720878512       -4.4646662221
 H       -10.1624920847        9.5207181162       -2.7669933027
 H        -8.8087827505        8.9872206300       -3.5364426562
 H        -4.8026019869        6.9973494644       -3.2747463488
 H        -4.5224452204        7.5844661472       -1.5264135786
 H        -5.2022745301        8.6523399239       -2.8882070893
 H        -6.2240809964        9.7783030024       -0.6565823625
 H        -8.0167221071       10.0745913877       -0.3863320840
 H        -7.3313077110       10.1233221771       -2.0079096586
 H        -7.1941466045        6.5956674304        0.3051351000
 H        -8.6029031513        7.4183503696        0.7249080765
 H        -7.1188959801        8.1876743213        1.0137460366
 H        -9.8849680588        5.6301923560       -7.2929616112
 H        -9.8378323997        3.9667122900       -6.8206422384
 H        -8.5055111968        5.0382726108       -6.3685767816
 H       -12.2137341725        4.7982093116       -6.0851607575
 H       -11.8582105536        6.6242469820       -6.1070449898
 H       -12.4030407471        5.7327033797       -4.5623282601
 H        -4.5947259493        2.9316330463       -2.1628048034
 H        -5.8420394895        3.4814425836       -3.2530888975
 H        -4.4095720956        2.6263168877       -4.0005509899
 H        -4.1376004150        0.1140347402       -3.0528641345
 H        -4.9448904892        0.2654579604       -4.5478414612
 H        -5.6616081469       -0.8217540514       -3.4412747068
 H        -6.8123077957        3.1856504152        3.6913218031
 H        -6.6573109324        4.0071671344        2.1893256726
 H        -6.2492914248        2.3910073196        2.3088275788
 H        -9.3909548027        0.8382634255        2.6779568932
 H        -8.5714545997        1.4453953426        4.1231055932
 H        -7.5366052263        0.6404647302        3.0482018220
 H       -14.2795984483        7.1785691296        4.5911142962
 H       -14.9904861086        6.3865317685        3.0927171942
 H       -13.2187482980        6.6726272179        3.1117078239
 H       -14.7998489917        5.8337906854        6.1081978181
 H       -14.1182213362        4.2884495918        6.4504195589
 H       -15.4205857881        4.1944052391        5.4587676133
 H       -12.8239596501       -1.4286387652        0.3572315932
 H       -12.0627743772       -2.1006104421        1.8867063509
 H       -11.7127713540       -0.5305480269        1.3413175811
 H       -15.1413247442       -0.2824906089        0.7624848605
 H       -15.8017653456       -1.0159802605        2.1724748615
 H       -14.8691346132       -1.9641828196        1.1949666775
 Na       -8.8217106158        4.8388484722       -0.8978599805
