117

 C       -12.2120125632       -1.5795105664        4.2525782107
 C       -13.6219506221       -1.3380737029        3.7034618746
 O       -14.6699126042       -1.6525666816        4.1864442375
 C       -13.6522338562       -0.6403499569        2.1164322806
 C       -13.5249147249        0.8785372961        2.4228154472
 O       -12.4557688126        1.4631372195        2.4736190061
 C       -14.7050413162        1.7307641949        2.6991949518
 C       -14.5562221527        2.8483145680        3.7208849516
 C       -14.2088637514        4.2708907062        3.1949673179
 O       -14.0535526547        4.5666817825        2.0108421831
 C       -13.7897718756        5.3905987263        4.3494443641
 C       -12.3104720658        4.9354811928        4.6702983964
 O       -12.0426477481        4.3923921770        5.7183764618
 C       -11.3425350379        5.0191099821        3.4891672245
 C       -10.3845576824        3.8390549272        3.6050063034
 C        -9.4447013055        3.8246234866        2.4044674316
 O        -9.5507230934        4.6083708312        1.4968864021
 C        -8.3692175585        2.6640690616        2.4305603698
 C        -8.3340177641        2.0530872538        0.9202352842
 O        -8.6703543940        2.7510490584       -0.0384296691
 C        -7.7389055045        0.5451689037        0.7516829737
 C        -7.4365268618        0.3322165888       -0.7573159191
 C        -6.2441649087        1.1270755774       -1.2875314336
 O        -5.4396446053        1.6273767159       -0.4895115393
 C        -6.0721493563        1.1282578438       -2.7955508406
 C        -7.3947702447        1.3296502706       -3.6730052780
 O        -7.5643791636        0.9652952534       -4.8114376243
 C        -8.6432452105        2.2730181056       -3.1609937040
 C        -8.4379875793        3.5780889244       -3.9530850622
 C        -9.6760141908        4.4403929171       -3.9681673984
 O       -10.4837980592        4.3041023912       -3.0799584599
 C       -10.0152830377        5.4454443414       -5.2241315532
 C        -9.2653681324        6.7764652009       -4.8717216930
 O        -8.0302611890        6.9500034697       -5.0537789708
 C       -10.1676481664        7.7439500928       -4.1040795095
 C        -9.6002099386        8.7300367096       -2.9920873492
 C        -9.1296998159        7.8267541100       -1.8085987512
 O        -9.8093005628        6.9455628579       -1.3647887221
 C        -7.6671497570        7.9221162883       -1.2567541985
 C        -6.7559733346        7.0934426059       -2.2976354577
 O        -7.0394817190        5.8975480690       -2.4043570071
 C        -5.3751550052        7.7725542356       -2.6883611907
 C        -7.4640807822        9.5245548076       -1.3458172162
 C        -7.4196550802        7.2750834492        0.0809771734
 C        -9.5533319762        4.8929739645       -6.6324462580
 C       -11.5514706368        5.5305215002       -5.1087525152
 C        -5.0383376878        2.0950446349       -3.3685393438
 C        -5.5547807632       -0.3119190879       -3.1687112508
 C        -6.9150565724        3.2499470027        2.5525110852
 C        -8.6373994664        1.6391611774        3.4020340543
 C       -13.7009706636        6.7475741693        3.7990516050
 C       -14.6725059781        5.1763719653        5.5466158609
 C       -12.3204748700       -1.1167853263        1.3337832098
 C       -14.9833201082       -1.0001825326        1.4247448120
 H       -11.7674530949       -2.4052066114        3.6934773182
 H       -12.2529070102       -1.9966138752        5.3546121694
 H       -11.7160285831       -0.6642660680        4.2529323434
 H       -15.4727570568        1.0689863864        3.0614015288
 H       -15.2840961106        2.0845601027        1.6886286274
 H       -13.7041578275        2.5880544565        4.3113223142
 H       -15.4131954020        2.9109547232        4.3898755607
 H       -10.7710600260        5.9650238618        3.5070105337
 H       -11.9561516451        4.8172515524        2.5931987027
 H       -10.9937792408        2.9857577817        3.5489511910
 H        -9.8869464243        3.6747585762        4.5624315220
 H        -8.4600312190       -0.1157778441        1.0340502046
 H        -6.7955600227        0.3508351676        1.4094052890
 H        -8.3701747450        0.3238313845       -1.3518986233
 H        -7.0817579525       -0.7384122649       -0.7470835375
 H        -8.6878902141        2.4207122829       -2.1261358465
 H        -9.4918342153        1.7401257353       -3.5242446713
 H        -8.0887057552        3.3609808144       -4.9483380703
 H        -7.7769994099        4.2666132224       -3.3589318346
 H       -10.8908610376        7.1313479119       -3.5818847482
 H       -10.8500560722        8.1968077569       -4.9273052067
 H       -10.4919290984        9.2893344949       -2.7095685364
 H        -8.9919747452        9.5954345703       -3.4742961094
 H        -5.0740470954        7.5759783406       -3.7817475460
 H        -4.6724073848        7.5281936620       -1.9948977125
 H        -5.4737886795        8.8683095504       -2.7371651372
 H        -7.0186140640        9.9025714414       -0.5489934298
 H        -8.4030565885       10.1117025943       -1.4386933986
 H        -6.7979772203        9.7261429538       -2.2066581174
 H        -7.5142265383        6.1895755919       -0.2446038012
 H        -8.0657010057        7.5746917024        0.9701427181
 H        -6.3139922634        7.5180971171        0.3098771718
 H       -10.0633413589        5.5528029389       -7.4392936238
 H       -10.0239685004        3.9738194582       -6.8295113967
 H        -8.4726461630        4.8362114163       -6.8442162075
 H       -11.8537060560        4.5435983775       -5.3654132702
 H       -11.9963960462        6.3133587236       -5.6576565636
 H       -11.8222531693        5.6236462383       -4.0628228025
 H        -4.1195955503        1.9693080045       -2.7749499356
 H        -5.3257421896        3.1316084368       -3.3550113088
 H        -4.7968710228        1.8094991931       -4.3547925631
 H        -4.4733729206       -0.5261187325       -2.9642724776
 H        -5.6071739647       -0.6021130610       -4.2643107119
 H        -6.1278114621       -1.0291305574       -2.5589223399
 H        -6.7472189331        3.8364509183        3.5336298640
 H        -6.6728026396        3.9570371241        1.7017259953
 H        -6.1315285238        2.4294591795        2.5430054831
 H        -9.7525974863        1.2709410107        3.2068774100
 H        -8.5638524739        1.9256516533        4.5113598576
 H        -7.9275377289        0.8493379014        3.2649436161
 H       -12.9240154234        7.3199983689        4.2145703770
 H       -14.6648826715        7.1542351554        4.1384467464
 H       -13.5691030471        6.7033145143        2.7158616756
 H       -14.4027627696        5.9777384777        6.2226484403
 H       -14.6165595769        4.2353752092        6.1612681175
 H       -15.7306232124        5.1854466765        5.2977628793
 H       -12.6695685419       -1.2230974449        0.3576434346
 H       -12.0067003851       -2.1014527189        1.7616929176
 H       -11.4556992626       -0.4194056814        1.1593906255
 H       -15.2064548872       -0.0624794561        0.8086040547
 H       -15.7257379986       -1.2093275725        2.2217863244
 H       -15.0348863827       -1.9695925202        0.8847465203
 Na       -9.2153496894        5.0936860921       -0.5472712381
