117

 C       -12.8079796000        2.5603795267      -10.5751423889
 C       -13.0971260208        1.0065701189      -10.1189730701
 O       -14.1899106866        0.6306600259       -9.8299362730
 C       -11.8918229314        0.0801108307      -10.0414874573
 C       -11.4678252660       -0.0776893747       -8.5628363224
 O       -11.2532906478       -1.1592654881       -8.0392645762
 C       -11.2326787789        1.2027406876       -7.6281318189
 C       -10.7196790398        0.9136059002       -6.2123514719
 C       -10.3706871022        2.1734260784       -5.4886577838
 O       -10.1589134521        3.2065101250       -6.1307214541
 C        -9.9712691197        1.9726656812       -3.9465346210
 C        -9.1597252934        3.1699900897       -3.3932637345
 O        -7.9844930043        3.0474893882       -3.1887728351
 C        -9.9871462530        4.4875717054       -3.2255855056
 C        -9.1708974630        5.6848806876       -2.7314433859
 C        -9.0377467000        5.8030561153       -1.2177945193
 O        -9.1107227789        4.7598155193       -0.5303681188
 C        -8.6512463912        7.1148954542       -0.5832988219
 C        -9.7308841455        7.3800019372        0.5987013343
 O       -10.3918527150        6.4482838231        0.9710940575
 C       -10.0453089653        8.8114446642        1.0567944404
 C       -10.9589938837        8.7511524483        2.3129090974
 C       -10.1219567386        7.9564663092        3.3140758472
 O        -8.9379644293        8.2828746613        3.4840393248
 C       -10.9319528700        7.0946920355        4.3379111736
 C        -9.9981652570        5.9902110828        5.0047234813
 O        -9.3165023652        5.2370868682        4.2826977139
 C        -9.9301159559        5.9592725319        6.5210259128
 C        -9.3962450325        4.5663820224        6.8838161038
 C       -10.5411577188        3.5547350117        7.0628505060
 O       -11.7044095894        3.9512957980        6.8065693300
 C       -10.2742938648        2.0155918208        7.2134672523
 C        -9.2773901327        1.5549691692        6.0910166937
 O        -8.1043265186        1.6784657536        6.2770669566
 C        -9.7944860057        0.7687760692        4.9094638945
 C        -8.5522406867        0.6248277638        3.9656528711
 C        -8.2371859013        1.8579118024        3.0675330179
 O        -9.1712684839        2.6303055412        2.8903172718
 C        -6.7467150041        2.2034995324        2.4353484101
 C        -6.3974702221        3.6876848077        2.9303301326
 O        -6.7621352274        4.6557433552        2.3008850912
 C        -5.6131541257        3.8426264131        4.2658139415
 C        -5.6170616378        1.2277199529        2.9176362619
 C        -6.8917174971        2.2432744061        0.8722172292
 C        -9.6448969800        1.6111767532        8.6189813770
 C       -11.6836042323        1.3708662502        7.0075784439
 C       -11.5987828581        8.1493584601        5.2190100665
 C       -12.2281542615        6.3954517026        3.7323039898
 C        -7.2362408955        6.9845142949       -0.0325646660
 C        -8.5941711580        8.3898468063       -1.5120530224
 C       -11.3297109191        1.8070847791       -3.1492860624
 C        -9.1714012767        0.6538248406       -3.8092023125
 C       -12.2308235979       -1.2623088403      -10.6072904205
 C       -10.6139779188        0.5408486038      -10.8503999904
 H       -13.7427546626        3.0265453189      -10.4926551986
 H       -12.4369922380        2.5167092500      -11.5995774848
 H       -12.1281521816        2.8854851537       -9.8332444066
 H       -12.1429289521        1.8299557836       -7.5785799211
 H       -10.4938473190        1.8331343467       -8.0550609375
 H        -9.8404909019        0.3122475734       -6.4537581007
 H       -11.4144051611        0.2778469078       -5.7392292026
 H       -10.8785855743        4.5050889252       -2.7040051701
 H       -10.3886465417        4.6269885316       -4.2313150759
 H        -9.3987922409        6.6173058009       -3.2534148737
 H        -8.0564457093        5.6056605171       -3.0351268373
 H       -10.6142948814        9.3261515902        0.2294736119
 H        -9.1364828554        9.3182085087        1.2172136540
 H       -11.9400077885        8.4015728450        1.9994046397
 H       -11.1695290826        9.7120294716        2.8042674443
 H       -10.9301155361        6.0765968554        6.8941258327
 H        -9.5048358384        6.8526803577        6.9253959970
 H        -8.7469953718        4.5953330634        7.7312959380
 H        -8.8787269345        4.1889203814        6.0454018343
 H       -10.7210354552        1.1899151287        4.5195916259
 H       -10.0213543224       -0.0744564107        5.5948654481
 H        -8.5189743093       -0.2175954472        3.3203146504
 H        -7.7297582593        0.4041426388        4.6517987751
 H        -6.2339217465        4.5945767527        4.7401460822
 H        -4.6469042218        4.4218512967        4.2324578922
 H        -5.7256716292        3.0226187617        4.9490177207
 H        -5.8298753391        0.1865843778        2.5060919411
 H        -5.5674423429        1.1318726944        3.9863879736
 H        -4.7308105823        1.6430416541        2.6924460886
 H        -7.9509390110        2.0537159053        0.5175757222
 H        -6.3531429835        1.5020485282        0.4139436090
 H        -6.4483031724        3.1780236164        0.5218688674
 H        -8.9109048494        2.2108769783        8.9992390253
 H        -9.0845178320        0.6965063379        8.5144944482
 H       -10.4127740082        1.2717438466        9.3262499768
 H       -11.5583826980        0.2396767923        6.9544997818
 H       -12.0421972925        1.6428563740        6.0286705767
 H       -12.2889972737        1.6474735266        7.9087459981
 H       -12.0725904419        8.8299041249        4.5257132793
 H       -10.9655662004        8.6042344283        5.9057095458
 H       -12.3956735279        7.6670089378        5.7942819623
 H       -11.9127545905        5.6657561292        3.0658483814
 H       -12.9727019811        7.0373672983        3.4141723792
 H       -12.7049305416        5.8952351512        4.5697019161
 H        -7.1123518773        7.6867790067        0.8284753526
 H        -6.4816102020        7.2904471915       -0.7292002734
 H        -7.1716571028        5.9103765350        0.4465630118
 H        -7.9400124690        8.1507839934       -2.3604166500
 H        -8.3686260486        9.3547417533       -1.0480091634
 H        -9.6600563232        8.6478291187       -1.8856382740
 H       -11.8921978525        0.8385105615       -3.3875134013
 H       -11.9869766287        2.6405977741       -3.4787777646
 H       -11.1515115470        1.9619341718       -2.0911506214
 H        -9.7933125260       -0.2208110424       -3.8970135996
 H        -8.7598116732        0.5227065770       -2.8400568463
 H        -8.4167987964        0.5863528832       -4.5841957693
 H       -13.2337825713       -1.6252483413      -10.1777313033
 H       -11.6003307846       -2.1005371411      -10.2457309106
 H       -12.2155915787       -1.1434867469      -11.6745311733
 H        -9.8118037636        1.1209773704      -10.4554710860
 H       -10.8166544979        1.0052083792      -11.8321858573
 H        -9.9970058717       -0.3041339784      -11.1947203615
 Na       -9.2733825824        4.7324530426        1.9664083678
