117

 C       -12.1145553355       -2.0056393210        3.8360012887
 C       -13.5205880535       -1.2053937056        3.4746736751
 O       -14.5222236875       -1.1740357089        4.1842802163
 C       -13.5208478691       -0.3519479573        2.0721898195
 C       -13.2970779207        1.0851756101        2.5932595309
 O       -12.2120317566        1.5365275562        2.9776818215
 C       -14.4885421838        2.0411290493        2.7041682010
 C       -14.4236804130        3.0774719760        3.8042738871
 C       -14.1168307133        4.4724713395        3.3187752288
 O       -14.1113653035        4.6300714863        2.1126986613
 C       -13.7745939034        5.6878400412        4.2749262478
 C       -12.4279766532        5.3191758992        4.9896454495
 O       -12.4949664401        4.6894708845        5.9954346925
 C       -11.0738056363        5.4749473361        4.0596636410
 C       -10.6552121977        4.0718646239        3.5212758245
 C        -9.5617712516        4.1921589447        2.4913272481
 O        -9.5668542263        5.0262703354        1.6533159352
 C        -8.2355127039        3.0127976646        2.4788965818
 C        -8.3705431570        2.1754577627        1.1057515374
 O        -8.9225126869        2.7189942994        0.1342164593
 C        -7.7693864447        0.7004279080        1.0631925296
 C        -7.7050168645       -0.0713964479       -0.3365117142
 C        -6.5506566018        0.5648110668       -1.1481350277
 O        -5.9706550491        1.4666716704       -0.5178779074
 C        -6.1793849768        0.2483297112       -2.6586116900
 C        -7.3344480401        0.9840264202       -3.4229015149
 O        -7.9448239033        0.3812498803       -4.2885493982
 C        -7.6654004363        2.4674853048       -3.0995589035
 C        -8.4543798667        3.1714499454       -4.3438825806
 C        -9.5690515894        4.3053491599       -4.0957017820
 O       -10.2135919593        4.5620290816       -3.0898728309
 C        -9.9010096426        5.2922010678       -5.3377599535
 C        -9.3266621424        6.5640424289       -4.8308957100
 O        -8.0792216297        6.6819716580       -4.8317105471
 C       -10.0489669834        7.7593754193       -4.2603615889
 C        -9.1162500328        8.6999955087       -3.5136093668
 C        -8.8348204073        7.9889822656       -2.1996402860
 O        -9.7275854445        7.2649789719       -1.7954203377
 C        -7.5403010702        8.0894604736       -1.4125113542
 C        -6.9413933126        6.9091028533       -2.2757766550
 O        -7.3387222623        5.7408267919       -2.0686880438
 C        -5.9176004609        7.3330769977       -3.4004340502
 C        -6.7805471533        9.4665630794       -1.4907230515
 C        -7.8174988016        7.4869648381       -0.0079336791
 C        -9.4262500606        4.7956733940       -6.6936043680
 C       -11.4937974502        5.2045040185       -5.4768907085
 C        -4.6852035430        0.8379616903       -2.9061366022
 C        -6.0738847401       -1.3084343644       -2.9836358883
 C        -6.9909368132        3.7564822267        2.5203425672
 C        -8.3826909970        1.8415365301        3.6409708827
 C       -13.8469727662        6.9597054692        3.4145070147
 C       -14.8547346457        5.8484350160        5.3998852079
 C       -12.4559121417       -0.7813396398        1.1075558213
 C       -14.9925352489       -0.5374784745        1.3500515743
 H       -11.9702331007       -2.7016018637        2.9703615529
 H       -12.1120234486       -2.4709036880        4.8542311806
 H       -11.2408481372       -1.2939592867        3.8649514543
 H       -15.4108036642        1.4689442618        2.7443526563
 H       -14.6785161537        2.4647161097        1.6179332500
 H       -13.7238794106        2.8205100639        4.5918330162
 H       -15.3975590302        3.1561289872        4.3509261437
 H       -10.3133961450        5.7827912287        4.8111914976
 H       -11.2507635989        5.9610155403        3.1125631230
 H       -11.3671964596        3.4259282664        3.0609495596
 H       -10.3703608287        3.3801046163        4.3393949094
 H        -8.3998869210        0.2212891467        1.7639674389
 H        -6.7571451233        0.7148063001        1.6177862295
 H        -8.7159897986       -0.0990422841       -0.7906161506
 H        -7.3239748921       -1.0984178490       -0.1538604899
 H        -6.7720556042        2.9772504893       -2.8244446783
 H        -8.2654025952        2.4693128835       -2.2309803863
 H        -9.0104394250        2.5520814873       -5.0225374713
 H        -7.6189313778        3.7040280399       -4.8493637128
 H       -10.9819889531        7.5192236030       -3.6971304227
 H       -10.4661021323        8.1657052609       -5.2855627302
 H        -9.7321748368        9.6022794617       -3.2508979202
 H        -8.2947024909        9.0911902987       -4.2219023836
 H        -5.8703928862        6.6253454066       -4.2150357192
 H        -4.9788905460        7.5567410182       -2.9714421743
 H        -6.2823001110        8.2217391770       -4.0142803790
 H        -6.0088723723        9.6742603423       -2.2007316979
 H        -6.3391235317        9.6600198724       -0.5560088364
 H        -7.6167974349       10.1367576554       -1.6095213536
 H        -8.1045719854        6.4265721662        0.0231878192
 H        -8.7258346090        8.2100470493        0.2966865705
 H        -6.9174329334        7.6477437148        0.6066491158
 H        -9.7247316363        5.3850661947       -7.5677930528
 H        -9.7316059491        3.7867550004       -6.9005835539
 H        -8.3225763338        4.9693022341       -6.6837095393
 H       -11.7224078497        4.1481527484       -5.7130936171
 H       -11.7755164592        5.9040542886       -6.2853151419
 H       -11.9850926738        5.6037393197       -4.5681205036
 H        -4.0856085313        0.1181275035       -2.3900914023
 H        -4.5079954843        1.8968921648       -2.8053157028
 H        -4.3842530258        0.6118953657       -3.9542941601
 H        -5.6174204321       -1.9625106389       -2.2489423228
 H        -5.4802546809       -1.3457210578       -3.9553720483
 H        -6.9990922563       -1.7910145823       -2.9774144817
 H        -6.7922894016        4.1534629739        3.4905663980
 H        -7.2538958612        4.5480137455        1.7789293881
 H        -6.1046652229        3.3243470219        2.2126459301
 H        -9.2958464538        1.3250678138        3.5416613095
 H        -8.5247265454        2.2851346285        4.6950251635
 H        -7.5189263219        1.1189530753        3.4874839146
 H       -12.8635412382        7.3179167991        3.2275421417
 H       -14.5763218206        7.6865617909        3.8661915789
 H       -13.9935016389        6.5974646579        2.4355529135
 H       -14.4389291395        6.0903519394        6.4017563215
 H       -15.2245586704        4.7558187098        5.6189972736
 H       -15.7009047650        6.5265617830        5.2767069680
 H       -12.0592203568        0.0321007839        0.5418897614
 H       -12.7726725947       -1.4377391896        0.3787871507
 H       -11.6614919200       -1.1779897931        1.6549019059
 H       -14.9973784203       -0.2225879962        0.3157885632
 H       -15.7025886773       -0.0420643183        1.9569466017
 H       -15.2379849337       -1.5949593924        1.2156841601
 Na       -9.3050996637        4.6537506211       -0.9684706672
