117

 C       -12.4047584134       -2.1085664995        3.5477580670
 C       -13.4996144117       -1.1152927988        3.2150166222
 O       -14.4242225303       -0.9662999981        4.0315214403
 C       -13.5083142292       -0.1388500975        1.9864445373
 C       -13.2531571379        1.2132578120        2.7741627261
 O       -12.1317296397        1.5483967791        3.1754544370
 C       -14.4877225724        2.0423486787        3.1615855473
 C       -14.2005366181        3.3017754799        4.0138556115
 C       -13.9432965876        4.6044736796        3.1927751086
 O       -14.2909902884        4.8046694035        2.0473810198
 C       -13.6942969804        5.8644398672        4.1090468253
 C       -12.3822168356        5.5080581048        4.8986245582
 O       -12.4019776503        5.2738708785        6.0657681446
 C       -10.9531824391        5.5139671988        4.0333704191
 C       -10.7132786444        4.1515146409        3.3978435755
 C        -9.6604889246        4.1700275468        2.3595001052
 O        -9.7182687003        5.0106454314        1.4098097409
 C        -8.4425138561        3.1358763235        2.4178428616
 C        -8.5935593350        2.2487797676        1.1112206116
 O        -8.8188082691        2.7204115968        0.0225741338
 C        -8.1272324648        0.7098562621        1.2206748616
 C        -7.8236913422        0.0296061172       -0.0715891844
 C        -6.6466970448        0.7394249179       -0.8264523213
 O        -6.1073513505        1.7741511651       -0.4029438861
 C        -6.4914761827        0.1660467498       -2.2552532057
 C        -7.4955717849        0.8900760684       -3.2790580190
 O        -8.4270652722        0.2306020833       -3.7016370417
 C        -7.3429092524        2.3733900917       -3.5646953042
 C        -8.4442204133        2.7259512637       -4.6653061060
 C        -9.2725992719        3.9423254328       -4.3133324571
 O        -9.3461258225        4.2329514417       -3.1372326578
 C        -9.9268816997        4.8770088431       -5.3043072361
 C        -9.2571067376        6.3955749020       -5.0828117422
 O        -8.0320682590        6.5834480149       -5.2927787546
 C       -10.1297411933        7.6994289414       -4.6710782475
 C        -9.3905624921        8.5605332425       -3.5574476567
 C        -8.9963517380        7.6850185010       -2.2945858862
 O        -9.8247500109        7.1317164887       -1.6383190445
 C        -7.5058079209        7.7642801747       -1.6628244214
 C        -6.6766438766        6.5070872895       -2.0083187085
 O        -7.0361295403        5.4335633153       -1.5028647260
 C        -5.4737052432        6.6541836125       -2.9067109316
 C        -6.8634742355        9.1821609081       -2.1121448588
 C        -7.7956533481        7.9495742593       -0.1028753585
 C        -9.4121851102        4.6310707874       -6.7360219713
 C       -11.4968724903        5.0693222492       -5.4328095446
 C        -5.0308188531        0.1004144871       -2.6806160381
 C        -6.9768517651       -1.3460162787       -2.2363711510
 C        -7.1241746930        3.8744677049        2.0537212945
 C        -8.2733991005        2.4311628376        3.6867750467
 C       -13.5620942410        7.1811331645        3.3125963914
 C       -14.9220894080        5.8659271950        5.0977741601
 C       -12.3147935780       -0.3160349243        1.0744507027
 C       -14.8341357711       -0.2528954639        1.2796260282
 H       -12.7626334114       -2.9323580522        2.9589831073
 H       -12.5429855194       -2.2880833546        4.6334540898
 H       -11.3782592195       -1.9756737812        3.2788700032
 H       -15.1247082212        1.4083475034        3.6145827286
 H       -15.0685923189        2.2089812511        2.3076957823
 H       -13.3170574019        3.2226688383        4.7039146732
 H       -15.0262595230        3.4300136687        4.7174423958
 H       -10.2032275806        5.8588057810        4.7456539696
 H       -11.1693209457        6.1682975455        3.1474087919
 H       -11.5905188515        3.6240800828        2.8944405697
 H       -10.4861809897        3.4199978930        4.2195101863
 H        -8.7801216401        0.1084365775        1.8474410246
 H        -7.1018061119        0.6821188635        1.8589655980
 H        -8.6784435343        0.0396959630       -0.6948447640
 H        -7.5878345723       -0.9885756843        0.2380218885
 H        -6.2915354094        2.6654729300       -3.7864499977
 H        -7.5903249685        2.8332714393       -2.5269821892
 H        -9.0552294177        1.8629213144       -4.8722660572
 H        -7.8335557720        3.0088684467       -5.5907649978
 H       -11.1023447135        7.4898164087       -4.4272794229
 H       -10.2186182370        8.3695779830       -5.5362708168
 H       -10.0879533891        9.3115165968       -3.3795580103
 H        -8.5272211980        9.0188183011       -4.0576677331
 H        -5.3334546540        5.6630830438       -3.4164067629
 H        -4.5990251638        7.0591963776       -2.5060770755
 H        -5.7797215446        7.3028764165       -3.8037695688
 H        -7.4709304771        9.6369605261       -2.8363700686
 H        -5.8758886968        9.1447486235       -2.6318317106
 H        -6.6987752620        9.8878772048       -1.2166537729
 H        -8.1019531311        7.0185083835        0.0927866277
 H        -8.5879803629        8.6948896438        0.0819247396
 H        -6.9527535854        8.1106151649        0.4122140142
 H        -9.8480844750        5.3904797845       -7.4736610252
 H        -9.7283571192        3.6971460610       -7.0590751283
 H        -8.3367179404        4.7197719812       -6.8042287254
 H       -11.9462156019        4.2899083520       -6.0159362060
 H       -11.6803201025        5.9786517283       -5.9430650706
 H       -11.8786143166        5.1151935881       -4.4128681582
 H        -4.4839912216       -0.4005087476       -1.8482964895
 H        -4.5194232278        1.0158977865       -3.0279050743
 H        -5.1044718427       -0.5950711746       -3.5511422790
 H        -6.3601148010       -1.9479844157       -1.5812674547
 H        -6.9214381480       -1.6915576310       -3.2850822068
 H        -7.9293524102       -1.6381165470       -1.8704898440
 H        -6.5925975266        4.4846907205        2.8245362058
 H        -7.1659419124        4.3090042421        1.0411245349
 H        -6.4827411324        3.0059467076        1.8547507257
 H        -9.2827515993        2.0760888565        3.9563429642
 H        -7.8488653778        3.2207677646        4.4120529519
 H        -7.4947183292        1.6199124986        3.7193726823
 H       -12.6242610989        7.6694543468        3.4721434247
 H       -14.3619468166        7.8282715218        3.8193019349
 H       -13.7675573184        7.0519929099        2.2042033971
 H       -15.3585614216        6.7957347286        5.2245396699
 H       -14.6543836042        5.5063376903        6.1029084596
 H       -15.7296107083        5.3567923744        4.7070565652
 H       -12.6352019313       -0.3827831026        0.0454957086
 H       -11.8469718894       -1.3560321686        1.1058383241
 H       -11.4564263886        0.4423583805        1.2244468470
 H       -15.2892709146        0.6541528573        0.7867904409
 H       -15.5414987738       -0.5309746198        2.0493569432
 H       -14.7291950952       -0.8868993128        0.4166985364
 Na       -8.9987166030        5.1060946411       -0.6982735151
