117

 C       -12.4367091362       -2.2329053970        3.4420613253
 C       -13.5383907853       -1.1166652132        3.2431920652
 O       -14.4935433448       -0.9598060574        3.9724708179
 C       -13.4327026303       -0.0675779805        1.9669426176
 C       -13.2952057251        1.2873848105        2.7702647717
 O       -12.1478748038        1.6010588334        3.0998258772
 C       -14.5404709769        2.0757877614        3.3165844027
 C       -14.0682845995        3.3595879752        4.0193426690
 C       -14.0377968310        4.6335517367        3.2268860914
 O       -14.2413853907        4.7487180403        2.0453299688
 C       -13.6646281441        5.9275437731        4.1300606151
 C       -12.2917112870        5.6730792117        4.8441567436
 O       -12.1748711384        5.3909939006        6.0098264732
 C       -11.1016229549        5.6044618097        3.9581725981
 C       -10.9230782777        4.1408879905        3.3755467188
 C        -9.6860465651        4.2163831850        2.3751079901
 O        -9.8722601319        5.0633417929        1.5373862884
 C        -8.4775096462        3.2215322691        2.3665615166
 C        -8.6187055238        2.3416950837        1.1767621295
 O        -8.8560629669        2.8183560574        0.0508191666
 C        -8.2879222794        0.8899514621        1.4368995245
 C        -7.9550446778        0.1360819714        0.1585150329
 C        -6.8730118236        0.8105023136       -0.8081285188
 O        -6.1834141363        1.6885640010       -0.3445271636
 C        -6.6035622240        0.0890664642       -2.2181443408
 C        -7.5890123096        0.7898741154       -3.2392088248
 O        -8.5921593626        0.1928824362       -3.5877750751
 C        -7.3317806462        2.2479237826       -3.7844409718
 C        -8.3823456199        2.6989922928       -4.8164842984
 C        -9.0884245014        3.9664753625       -4.2045096724
 O        -9.1166182913        4.1998384629       -3.0093281517
 C        -9.8277799026        4.9734676901       -5.3438632958
 C        -9.2103118699        6.3699723526       -5.0899146109
 O        -8.0569762126        6.5870792538       -5.3758948905
 C       -10.0922878722        7.5056491360       -4.5893782031
 C        -9.3575325769        8.3367305249       -3.6109589004
 C        -8.9884326563        7.6539875949       -2.2877467352
 O        -9.7640747061        6.9373388726       -1.6840635144
 C        -7.6038333284        7.8198837405       -1.7956562114
 C        -6.6333900517        6.5084175801       -1.9575419940
 O        -6.8221873160        5.4491976874       -1.3419735678
 C        -5.2973690996        6.4785610055       -2.7312397197
 C        -6.9234077149        9.1956461910       -2.3253028565
 C        -7.6583267384        7.9368554866       -0.2070101421
 C        -9.4330321497        4.4442074164       -6.8239492025
 C       -11.3246754824        4.8580940853       -5.2842730139
 C        -5.2005860332        0.1077004823       -2.8679333744
 C        -7.1365187564       -1.3490927820       -2.0288774939
 C        -7.0579824515        4.0338079720        1.7992310920
 C        -8.2277580983        2.4063404498        3.6978268344
 C       -13.5135884411        7.2004924309        3.1634186835
 C       -14.8559212083        6.1203109491        5.1377771138
 C       -12.2241989779       -0.2622497381        1.0414340497
 C       -14.7271428795       -0.2183017408        1.1854046187
 H       -12.5991503854       -3.1219393609        2.7733801194
 H       -12.4787329549       -2.4370734461        4.4649250925
 H       -11.3547795071       -1.8352534585        3.1526926556
 H       -15.2423239082        1.4566605882        3.8986005683
 H       -15.2166659529        2.3012802170        2.4857636858
 H       -13.0552637964        3.3182511111        4.4571846368
 H       -14.6836003097        3.5367829326        4.9597579493
 H       -10.2358183420        5.9112883228        4.7014183435
 H       -11.2849754055        6.3316056876        3.1534813078
 H       -11.7177275801        3.7981899433        2.6767700305
 H       -10.9827868900        3.4143176483        4.2605005893
 H        -9.2296903926        0.4657856884        1.9020532702
 H        -7.5124949123        0.7253531875        2.2042803718
 H        -8.9195152431       -0.1287148984       -0.2968583945
 H        -7.4874968680       -0.7551699836        0.5450314640
 H        -6.2766644887        2.3360611790       -4.1238007958
 H        -7.3945409541        2.8665631452       -2.8644478266
 H        -9.0518718057        1.8397568742       -5.0063370893
 H        -7.8825994569        3.0146357527       -5.7493783285
 H       -11.1034841256        7.1433465249       -4.3193187656
 H       -10.2568192220        8.2326988542       -5.4303457434
 H       -10.0115495521        9.2480475758       -3.4687374905
 H        -8.4600259601        8.6526194368       -4.1781221269
 H        -5.1612156738        5.4541463048       -2.9715358019
 H        -4.4532889194        6.8643878603       -2.1098498596
 H        -5.2239414627        7.0488339109       -3.7028429044
 H        -7.7782313241        9.8829466894       -2.7666016331
 H        -6.2971922299        9.0316182284       -3.1510728884
 H        -6.3349469398        9.6388545535       -1.5884945992
 H        -8.1431998895        6.9842318357        0.1078902427
 H        -8.1642421489        8.8436276593        0.0910512059
 H        -6.6332358442        7.9101051671        0.1670875842
 H        -9.8462045219        4.9807173683       -7.6158041607
 H        -9.8383806225        3.4126078761       -6.8371257375
 H        -8.3229198844        4.3586387088       -6.9812684644
 H       -11.6059346366        3.9134927437       -5.7724814692
 H       -11.8027120609        5.6235066199       -5.9214420281
 H       -11.6501876805        4.8448030602       -4.2482289602
 H        -4.5195585976       -0.4143364076       -2.1915687752
 H        -4.8312228034        1.1710219711       -2.8983415949
 H        -5.2530823378       -0.2957000167       -3.9712952651
 H        -6.6763020706       -1.8689891078       -1.2090960147
 H        -7.0337958383       -1.8976369978       -2.9909014131
 H        -8.2063279320       -1.5032286856       -1.8953880981
 H        -6.8464054907        4.7152274307        2.5880748203
 H        -6.9101170143        4.4106111763        0.7913998231
 H        -6.3198877025        3.3241141891        1.9063018772
 H        -9.0627311714        1.7189580302        3.8676568610
 H        -7.9604636879        3.1460059353        4.5280727310
 H        -7.1563020594        1.8962741670        3.6717849665
 H       -12.6101063354        7.8600991395        3.3827377347
 H       -14.3809561283        7.8523150970        3.5166660259
 H       -13.6921576004        6.9629362087        2.1257147038
 H       -15.0534227213        7.1884598628        5.1991508032
 H       -14.6891439159        5.8178165709        6.1856363985
 H       -15.8092095475        5.7874207507        4.7669025012
 H       -12.5735625658       -0.3874276265        0.0172343900
 H       -11.7543314682       -1.1802433077        1.1412817143
 H       -11.4729010051        0.4768092740        1.1084239757
 H       -14.9747427425        0.4266019799        0.4288499886
 H       -15.5114237828       -0.1408493796        1.9071304794
 H       -14.6816501563       -1.1843885209        0.6790113005
 Na       -9.1112274347        5.0130860464       -0.6702869634
