117

 C       -12.9132106268        2.4270670103      -10.5824276626
 C       -13.0992044091        0.9617804649      -10.1229308232
 O       -14.2033007365        0.5165666274       -9.9473970405
 C       -11.7818448034        0.0568104164      -10.0810086124
 C       -11.3263977425       -0.1370851376       -8.5064073874
 O       -11.2073875481       -1.2139611039       -8.0195604986
 C       -11.2310612166        1.1644263889       -7.7205356579
 C       -10.7988691978        0.9084396565       -6.3111808412
 C       -10.2665346053        2.0778707381       -5.5548933363
 O       -10.1082335254        3.1814486932       -6.0031440837
 C        -9.9705923370        1.9142541800       -3.9804151129
 C        -9.2266573585        3.1918722350       -3.4701332560
 O        -8.0901012763        3.1588347318       -3.0310225671
 C       -10.0346731887        4.4376486285       -3.2983183211
 C        -9.2689405081        5.6382260985       -2.8201684588
 C        -8.9990709548        5.7039668424       -1.2989335592
 O        -9.1518077480        4.7319127855       -0.5389231498
 C        -8.7390737866        7.0626961688       -0.6163981472
 C        -9.8155501245        7.3705454988        0.5170617712
 O       -10.4319470341        6.4565143868        1.0088792793
 C       -10.0724409697        8.7476308777        0.9071536112
 C       -10.9412810312        8.7689388865        2.2633282389
 C       -10.1852899148        8.0424348374        3.3472176066
 O        -8.9987279414        8.2868909339        3.4981389924
 C       -10.9837136890        7.1034193349        4.3209649380
 C       -10.0066491575        6.1100278360        4.9389186366
 O        -9.2908116106        5.3881948248        4.2695447762
 C        -9.9360675178        5.9687571330        6.4953567228
 C        -9.3605382169        4.6565034226        7.0486735392
 C       -10.5152527670        3.5606967513        7.0580304541
 O       -11.6885744184        3.8827290610        6.8730737073
 C       -10.1826406928        2.0315404698        7.2968177289
 C        -9.0893372529        1.6298169399        6.2406710476
 O        -7.9858731833        2.0574577567        6.3779522256
 C        -9.5503830170        0.7187818115        4.9918874561
 C        -8.4087600972        0.6184093599        3.9432853560
 C        -8.1836646524        1.9133102204        3.1526474830
 O        -9.1267727058        2.6324766416        2.8495128228
 C        -6.7642986320        2.2332828718        2.5286864149
 C        -6.4858323840        3.7185503585        2.9527418548
 O        -6.8768139017        4.5931892852        2.2087579019
 C        -5.6755012683        3.9218691154        4.2071654220
 C        -5.7423835171        1.1790141541        2.8884952780
 C        -6.9274986004        2.1965806731        1.0143253286
 C        -9.4822309436        1.7498587772        8.6080229468
 C       -11.5614264605        1.3392057861        7.2541218402
 C       -11.5189966337        8.1575738044        5.3538162278
 C       -12.1637841638        6.3431408631        3.6268985733
 C        -7.3050545085        6.9248110233        0.0269650615
 C        -8.7851326922        8.2795698117       -1.6147154207
 C       -11.4159388107        1.8317860452       -3.2080054333
 C        -9.2460695858        0.6324684239       -3.7167976369
 C       -12.2675474415       -1.3221312558      -10.5466123778
 C       -10.6412250825        0.6368376349      -10.8897911120
 H       -13.8292690401        2.9082255336      -10.7628732459
 H       -12.3009669905        2.3603160955      -11.4892618760
 H       -12.3921284076        2.7545787930       -9.7545070951
 H       -12.2260533346        1.6289241310       -7.7216182489
 H       -10.5412399611        1.8939474980       -8.2577056748
 H       -10.1372954731        0.0479517187       -6.3689117411
 H       -11.7294034710        0.4857360633       -5.8694220025
 H       -10.8413289667        4.4146985294       -2.6120623318
 H       -10.6147396985        4.6291351409       -4.2076183232
 H        -9.8153106968        6.5112818375       -3.1844195152
 H        -8.2695349979        5.8668682989       -3.2010133554
 H       -10.5099641035        9.3036283748        0.0807204307
 H        -9.0346953780        9.1945448994        1.1198974746
 H       -11.9175838260        8.3071927265        2.0978932760
 H       -11.2139784762        9.7335147733        2.5793589982
 H       -10.8359774850        6.2282364629        7.0573575927
 H        -9.3362320133        6.8007924910        6.8372379744
 H        -9.1018596868        4.9047829129        8.0611133756
 H        -8.4533012694        4.3169706344        6.5299588950
 H       -10.3547636088        1.2954156591        4.4848727152
 H        -9.9370653858       -0.1320018038        5.5416969545
 H        -8.7625593383        0.0784403247        3.1088535032
 H        -7.6085346675        0.0573910164        4.2461249866
 H        -5.9796447303        4.6445917358        5.0191360472
 H        -4.7429984964        4.3264820189        3.8547868879
 H        -5.6232642956        2.9639476982        4.7175650211
 H        -6.1246272632        0.2135775662        2.5432894832
 H        -5.4710358351        1.1339282076        3.9514139719
 H        -4.7815138780        1.5483291336        2.4502792089
 H        -7.9997386601        2.0355344888        0.6730504956
 H        -6.4473964606        1.3092789401        0.5928087240
 H        -6.4047174268        3.0159498939        0.5608786730
 H        -8.7788129326        2.5536665725        8.8018232975
 H        -8.8117865610        0.9295284456        8.6550522932
 H       -10.1414920872        1.5629769846        9.3727519430
 H       -11.2715794971        0.2592956424        6.9797836021
 H       -12.1895888103        1.6777079052        6.4504074932
 H       -11.9493854139        1.3096010241        8.2742940020
 H       -12.0696674139        8.8780788066        4.8063972067
 H       -10.6149558670        8.5686210634        5.8563516299
 H       -12.1751615751        7.7805619066        6.0958977598
 H       -11.7486224513        5.6839116823        2.8980316135
 H       -12.9722038677        7.0100475065        3.3075319021
 H       -12.6726233052        5.6753593006        4.3937029129
 H        -6.9959121086        7.6560985111        0.8485060217
 H        -6.5610422648        7.0351453707       -0.7898466161
 H        -7.3397510600        5.9650015160        0.4893818347
 H        -7.9711001862        8.1330584174       -2.3658329957
 H        -8.7413560782        9.3257023349       -1.2328645617
 H        -9.7961112227        8.3212881920       -2.1239696938
 H       -11.9078506823        0.8325013988       -3.3261373506
 H       -12.1409897826        2.6123988071       -3.5499307830
 H       -11.2065975155        2.0215167750       -2.1510529820
 H        -9.7533862314       -0.3035205859       -3.9563121852
 H        -9.1057449606        0.5589524768       -2.6076604813
 H        -8.2203120011        0.6460400133       -4.1918243390
 H       -13.2874489651       -1.3805339352      -10.1988561067
 H       -11.8982385272       -2.1828999440       -9.9262624236
 H       -12.2232519559       -1.4758975437      -11.6557883607
 H       -10.0609689203        1.4952050501      -10.4465856847
 H       -10.8097753430        0.9820516642      -11.9391712570
 H        -9.8062102831       -0.0328363268      -11.0730604980
 Na       -9.2428156900        4.7231579320        1.7756093974
