117

 C       -12.5729610203       -2.2695396095        3.1581161052
 C       -13.6516360852       -1.0679919872        3.0816217771
 O       -14.6546759407       -1.0257778766        3.8059577740
 C       -13.3587024495        0.0358366981        2.0067795975
 C       -13.1737421749        1.4457895423        2.7513229168
 O       -12.0628462693        1.9559854829        2.8624544753
 C       -14.3704916800        2.1566248757        3.3714848331
 C       -14.2600322155        3.4048157351        4.3086013703
 C       -14.1139522056        4.6688838308        3.4751972488
 O       -14.1654064632        4.5165472235        2.2715778491
 C       -13.6475514405        6.0745749619        4.1060996575
 C       -12.2381704671        6.0671483146        4.8085999714
 O       -12.1673211548        5.8410229705        5.9988631616
 C       -10.9194413601        6.0649276883        3.8363042994
 C       -10.6706483378        4.6449970367        3.3210692509
 C        -9.6992431282        4.6673516719        2.2785624992
 O        -9.8354317253        5.3838718971        1.2381403427
 C        -8.3973560770        3.7573146276        2.2230297828
 C        -8.5745566735        2.5037678767        1.2635486007
 O        -9.1807490755        2.6929344317        0.2501565180
 C        -8.3514712331        0.9731728475        1.5628904601
 C        -8.6140132804        0.1142505638        0.2593834342
 C        -7.3791797103        0.4800652355       -0.7561054114
 O        -6.6586388755        1.3763435582       -0.3131289368
 C        -7.0120657260       -0.2273879004       -2.1681181757
 C        -7.9688500737        0.5086719617       -3.1840562160
 O        -9.1700393253        0.3244637961       -3.0991460208
 C        -7.3078837094        1.7247250492       -3.9304147273
 C        -8.1124239082        2.4939151050       -4.9449253165
 C        -8.6702368805        3.7768923309       -4.3810771493
 O        -8.4320940792        4.1185414829       -3.2435191886
 C        -9.6918271857        4.5141891406       -5.3502374162
 C        -9.3325648174        6.0796552872       -5.1926736842
 O        -8.2306675724        6.3949998694       -5.6405900746
 C       -10.1698619493        7.1426622644       -4.4216689608
 C        -9.3573972905        8.1757214007       -3.7063270779
 C        -8.6850130154        7.5171625196       -2.3995482903
 O        -9.1966507474        6.5867663410       -1.8691635263
 C        -7.1883137278        7.9125179266       -1.8151357184
 C        -6.5394698119        6.3869991846       -1.7990451114
 O        -6.9450874920        5.4089136945       -1.1056811958
 C        -5.0683176368        6.4149726357       -2.2980155619
 C        -6.4919800573        9.0103679884       -2.6662783598
 C        -7.5765021817        8.3823499217       -0.3266740644
 C        -9.5175083923        4.1704692444       -6.8043107121
 C       -11.1056956218        4.0046104280       -4.8621681525
 C        -5.4398548258       -0.0629292120       -2.2990256004
 C        -7.3531145677       -1.7197208845       -2.1817230405
 C        -7.2058349956        4.7750377136        1.9883239383
 C        -8.1180860828        3.0615420413        3.7818964680
 C       -13.7541385377        7.0665483770        2.8563813842
 C       -14.6217445238        6.6779691003        5.2235649398
 C       -12.1879189694       -0.2795390164        1.1507244824
 C       -14.7139055026        0.0979023866        1.1121676458
 H       -12.5059555791       -2.4807642815        2.1375615695
 H       -12.9571708134       -3.0716105223        3.6145086924
 H       -11.5106629613       -2.1058148491        3.4868400109
 H       -14.9167425479        1.3966197379        3.7902410711
 H       -15.0083711294        2.4083304866        2.5499160567
 H       -13.4623392648        3.2906395491        5.0609602494
 H       -15.1909157085        3.4958144121        4.8413209754
 H       -10.0369931761        6.4624654331        4.3667922280
 H       -10.9554091812        6.8478612204        3.0525325977
 H       -11.6164565449        4.3508211564        2.8813651020
 H       -10.2203124227        3.9492161429        4.0510942728
 H        -9.1388310103        0.6959890147        2.2528690628
 H        -7.3423181564        0.6810843531        2.0644391833
 H        -9.6483598289        0.2338227691        0.0201047829
 H        -8.5583803616       -0.9163529328        0.6500986437
 H        -6.3413703364        1.3719215495       -4.3035824408
 H        -6.9815945733        2.4398742831       -3.0878584540
 H        -8.8618980795        1.9313041006       -5.4459853146
 H        -7.4652404880        2.9167350464       -5.8060535076
 H       -10.7560952616        6.6769127650       -3.7259147125
 H       -10.8041939358        7.5746697597       -5.1751957014
 H        -9.8938531334        8.9588225732       -3.3189066307
 H        -8.5601964009        8.5452744861       -4.3611929959
 H        -4.5924001384        5.5350796831       -1.9401699394
 H        -4.5372904159        7.2758801535       -1.9788241484
 H        -4.9723279300        6.5775206420       -3.4324693369
 H        -6.3268724866        9.9512088500       -1.9108528138
 H        -7.1036454907        9.3425536110       -3.4941305397
 H        -5.5547088795        8.7434697923       -3.1440492792
 H        -8.1275268024        7.6297510704        0.1942655246
 H        -8.1384972470        9.2835328379       -0.5707888441
 H        -6.7718770636        8.7037978266        0.2166863504
 H       -10.3365681617        4.7075406656       -7.2979642523
 H        -9.4908949894        3.1517207973       -7.0719316069
 H        -8.5326961873        4.5571415868       -7.1371055741
 H       -11.2672619097        2.9617178005       -5.0820109938
 H       -11.7650867374        4.4798182627       -5.5491390216
 H       -11.3020747637        4.1573848169       -3.8002945602
 H        -5.0263281168       -0.2547713381       -1.3786965765
 H        -5.1949870795        0.9393874580       -2.3740774292
 H        -5.0957641436       -0.6251318178       -3.1509378168
 H        -6.9280190380       -2.1854841578       -1.2999409537
 H        -7.1585855990       -2.4323208656       -3.0312270541
 H        -8.4072245620       -1.8075626407       -2.1153259250
 H        -7.2358077631        5.5911216632        2.7639922126
 H        -7.2237820628        5.2344950266        0.9206713457
 H        -6.2910624621        4.1757985767        1.9014439571
 H        -8.9645582553        2.6675116243        4.1794152254
 H        -7.6403062469        3.8919827062        4.3850581299
 H        -7.2505213114        2.2841939663        3.6263853116
 H       -13.8220531268        8.0375495402        3.2728167941
 H       -14.6182163797        6.8812368514        2.1790215673
 H       -13.0333167228        6.9191481217        2.0836736992
 H       -14.1684529113        7.3254949138        5.9349170895
 H       -15.1556357672        5.8993405225        5.8376549269
 H       -15.4155648662        7.1954788810        4.7896071407
 H       -11.7291188683        0.7010335547        0.7340883639
 H       -12.4459286150       -1.0054360115        0.3199975740
 H       -11.2562894521       -0.7582880684        1.6509332901
 H       -14.5512863965        0.6871789535        0.1717256752
 H       -15.5072541681        0.7773449344        1.5383542808
 H       -15.2288558061       -0.8837884352        0.8041667787
 Na       -9.0563930014        4.7139779760       -0.9223045740
