117

 C       -12.7961046242       -2.2594711817        3.1499296100
 C       -13.7229139347       -1.0313718415        3.0262097884
 O       -14.6497383447       -1.0088586943        3.7573884825
 C       -13.2887513911        0.2123339540        2.0609045120
 C       -13.1712570756        1.5558533411        2.8327871207
 O       -12.0523089220        2.0426940253        2.8192040446
 C       -14.4980122114        2.0635924973        3.5354517734
 C       -14.2185460178        3.2979518948        4.3750956906
 C       -14.0035740974        4.6825538569        3.4849864901
 O       -14.1776763746        4.5826557316        2.2897012143
 C       -13.6908099840        6.2154210710        4.0752526701
 C       -12.2472850259        6.1841756348        4.7298926301
 O       -12.0000185530        5.9597958637        5.9192150426
 C       -10.9706750547        6.3326736064        3.9587106253
 C       -10.8107992168        4.8551258981        3.3334240172
 C        -9.6201859040        4.7586393266        2.2033468392
 O        -9.8231897338        5.3355290870        1.1892863827
 C        -8.2834029777        3.8444492820        2.2542371022
 C        -8.6938584430        2.5947724708        1.2800315583
 O        -9.2128587424        2.8538462365        0.2096967665
 C        -8.3710851046        1.0894334405        1.6034993091
 C        -8.6835356118        0.1743155171        0.3954333793
 C        -7.4966611259        0.3302542115       -0.5713881347
 O        -6.8426660449        1.3056127094       -0.3639812890
 C        -7.1649272083       -0.3791763941       -1.9420493110
 C        -7.8861084600        0.5207357355       -2.9656007930
 O        -9.0882208461        0.4209378373       -2.9324046649
 C        -7.1794465457        1.5773452063       -3.9003241668
 C        -7.9862607472        2.2662706802       -5.0631706430
 C        -8.6007496181        3.5724410254       -4.4429716465
 O        -8.1136250241        3.9166690320       -3.3717990928
 C        -9.7878224538        4.4809575818       -5.2656225151
 C        -9.3797426033        6.0429105960       -5.1364437727
 O        -8.3973720310        6.3033049117       -5.7305884046
 C       -10.2053596622        7.0925467401       -4.3647803008
 C        -9.2262522108        8.0675398727       -3.6567149207
 C        -8.5297283235        7.3877207713       -2.5227681132
 O        -9.2994776417        6.7058426890       -1.8854418071
 C        -7.1431349366        7.9037886944       -1.8662857816
 C        -6.2482440128        6.6096987186       -1.6143808807
 O        -6.9353943455        5.6620430289       -1.2681149963
 C        -4.8564297965        6.2575029323       -2.1653740661
 C        -6.4306207532        8.9298124129       -2.6109033493
 C        -7.6654463253        8.4984213396       -0.5815649181
 C        -9.6162913086        4.1004633758       -6.7978512560
 C       -11.1755981152        3.9541151497       -4.8949429354
 C        -5.5722434192       -0.3178585325       -2.1777348883
 C        -7.5719133917       -1.7924480737       -2.1073615240
 C        -7.1312528857        4.6736313471        1.8405253095
 C        -8.0112164689        3.1534306274        3.7002943664
 C       -13.7993173818        7.0627040335        2.8170322891
 C       -14.7920674119        6.5598892111        5.1331546471
 C       -12.1603797873       -0.1651002469        1.0558176764
 C       -14.6349932677        0.2674095108        1.1481190933
 H       -12.5482474154       -2.7240769477        2.2009977666
 H       -13.2960331597       -2.9561543560        3.8399422729
 H       -11.8402880126       -1.8558653711        3.5408936012
 H       -14.8892213909        1.2204487999        4.0854038891
 H       -15.2431822007        2.2489540779        2.8369202055
 H       -13.5249301832        2.9923550342        5.1506603608
 H       -15.2043982897        3.6117624600        4.8437818765
 H       -10.0488656262        6.5960166559        4.5977604753
 H       -10.9280585191        7.2515200795        3.3984742972
 H       -11.7565849879        4.6890163378        2.7893417123
 H       -10.5213736675        4.1412031423        4.1494480588
 H        -8.9432743522        0.7317191053        2.5782402515
 H        -7.3356272948        1.0752505756        1.7932269390
 H        -9.6159468096        0.5440837639       -0.0880879595
 H        -9.0037419911       -0.7656635181        0.7728914368
 H        -6.2838024369        0.9745257061       -4.3099827704
 H        -6.6442133212        2.3771046071       -3.3034541273
 H        -8.8901177739        1.7251630084       -5.4074991684
 H        -7.4071153412        2.4347097729       -5.9925240525
 H       -10.7970573904        6.6186615989       -3.5511912587
 H       -10.8581601472        7.6405863888       -4.9942454821
 H        -9.8267681436        8.8327056657       -3.1319633048
 H        -8.5001091271        8.4991189571       -4.2591108463
 H        -4.6812936186        5.3320497060       -1.6683085436
 H        -3.9402699276        6.9372208364       -2.2278567165
 H        -5.0276710318        6.1111124162       -3.1972462758
 H        -5.9881120471        9.5786983964       -1.8335494124
 H        -7.0245384486        9.5643401249       -3.3448446853
 H        -5.6259152122        8.5365993852       -3.2394874853
 H        -8.0091933313        7.7037140643        0.0255654010
 H        -8.2728181942        9.2584779993       -0.6932921639
 H        -6.7395190956        8.8530966734       -0.1352384892
 H       -10.2816748572        4.5822778947       -7.3820753845
 H        -9.6462925378        2.9989087955       -6.9554993724
 H        -8.5660355760        4.2971477670       -7.0206075765
 H       -11.3001547800        2.9435023153       -5.1984083667
 H       -11.8650488816        4.4854073330       -5.5357209292
 H       -11.4032982370        3.9921582043       -3.8666097723
 H        -5.0504584780       -0.2974157244       -1.2544615508
 H        -5.2848827134        0.6538012474       -2.5835093532
 H        -5.3933854059       -1.1188489964       -2.8900309505
 H        -6.9692953690       -2.4874991277       -1.5776180057
 H        -7.4794580048       -2.1514723219       -3.1382985592
 H        -8.6473973655       -1.9457164244       -1.9722831704
 H        -7.0158512338        5.6551671744        2.3649192672
 H        -7.3686058821        4.8395469429        0.7905771178
 H        -6.2528457321        4.0494234769        1.6803487079
 H        -9.1608007332        3.0495977871        3.9956282082
 H        -7.3899282762        3.7704445888        4.4289388406
 H        -7.5727968372        2.1369860701        3.5365858140
 H       -13.8771098980        8.1972506736        2.8983685434
 H       -14.4498650630        6.7184548146        2.0435397808
 H       -12.9874954805        6.7592783357        2.2342006016
 H       -14.4560942105        7.1596081585        5.9361302250
 H       -15.1798866502        5.7003928432        5.5435100395
 H       -15.6933778837        6.9823072783        4.7325435063
 H       -11.3532779935        0.6996782437        1.1041878751
 H       -12.5094083933       -0.3446079247       -0.0090584066
 H       -11.5208336562       -1.0577114124        1.2252786020
 H       -14.6041986270        1.1515066068        0.5712758182
 H       -15.6450175276        0.4081965493        1.6411609273
 H       -14.7893998149       -0.6299648994        0.4760115319
 Na       -8.9692240305        4.5463233859       -1.0187918669
