117

 C       -12.8732470492       -2.3063661569        3.1445616126
 C       -13.6808412635       -0.9909568723        3.0877342289
 O       -14.7309885758       -0.7974352661        3.6570667633
 C       -13.4341155150        0.2210716913        1.9636911746
 C       -13.1740611401        1.5202354113        2.8752109117
 O       -12.1744250391        2.1927575274        2.8939525190
 C       -14.3023196406        2.1064660927        3.6872974890
 C       -14.1098675905        3.4682768222        4.4628844606
 C       -13.9920050675        4.6130452137        3.5025471333
 O       -14.1437871086        4.5620411102        2.3155949186
 C       -13.6093499655        6.0079473424        4.0114737634
 C       -12.2914858026        6.2474983469        4.7537704632
 O       -12.2329552965        6.1074179687        5.9350491602
 C       -10.9620484365        6.4668461537        3.7590143950
 C       -10.6774504271        5.0328392300        3.2703766371
 C        -9.5356928142        4.8108422154        2.1139228084
 O        -9.7497597378        5.3438136505        1.0859963354
 C        -8.5413411009        3.7161749343        2.3141397036
 C        -8.7742355390        2.6400390696        1.2593745028
 O        -9.2670372203        2.9212781670        0.1553847923
 C        -8.5560126367        1.2270508779        1.6814375072
 C        -8.6438740294        0.2440552515        0.4614526291
 C        -7.4860191611        0.4431461125       -0.4517994014
 O        -6.7217670048        1.3938776019       -0.3856798560
 C        -7.2763442415       -0.5306083101       -1.7625541006
 C        -7.9396273337        0.5574599701       -2.8730134618
 O        -9.1481684682        0.6583214690       -2.9306772389
 C        -7.0645845972        1.2051995180       -3.9417738739
 C        -7.9774253436        1.9567716234       -4.8965570048
 C        -8.6121306839        3.3474949630       -4.4397527135
 O        -8.0932813935        3.9870271037       -3.5318439363
 C        -9.6567072514        4.1933505341       -5.2310324188
 C        -9.3428912296        5.7746929827       -5.0989768483
 O        -8.5310136396        6.3376116487       -5.7978261787
 C       -10.2148439629        6.8805531434       -4.3732220224
 C        -9.1255119241        8.0046493648       -3.8757040173
 C        -8.5921732923        7.4388351229       -2.5162638574
 O        -9.2885538792        6.6750189590       -1.8286189371
 C        -7.0597961287        7.9531351008       -1.9353386400
 C        -6.1797439795        6.5179671502       -1.7239971079
 O        -6.7732069598        5.6481719700       -1.1450937931
 C        -4.7548196920        6.3138702903       -2.0251044863
 C        -6.2295489338        9.0232100474       -2.8277868640
 C        -7.6734109286        8.5916281087       -0.5844036943
 C        -9.6299367945        4.0271030563       -6.7858205873
 C       -11.1562305711        3.9970668918       -4.7481647543
 C        -5.6542928038       -0.6034302282       -1.9626953250
 C        -7.9080212128       -1.9428867101       -1.9483441707
 C        -7.0499076396        4.4135764066        1.6645527113
 C        -7.9844847015        3.3615090388        3.7480137283
 C       -13.7419273805        7.1528819805        2.9596066079
 C       -14.8556417997        6.3621814151        4.9734462571
 C       -12.1859145884        0.0954645688        1.1187481198
 C       -14.6672196511        0.4385627108        1.0923369799
 H       -12.8232463313       -2.8509940751        2.1365526611
 H       -13.4212706743       -2.9459521476        3.9903008009
 H       -11.8793306905       -2.0409602840        3.3782700557
 H       -14.6721031399        1.2402799063        4.3851940602
 H       -15.1812190335        2.2109121098        2.9582761861
 H       -13.1386688996        3.3506156946        4.9714066441
 H       -14.9076694031        3.6153553780        5.2418090392
 H       -10.0308707731        6.9733324055        4.0310834526
 H       -11.2067276291        7.2356743147        3.0092918937
 H       -11.6080952630        4.8558270674        2.6593902887
 H       -10.4821692940        4.3743950659        4.0962191213
 H        -9.2564542671        1.1183718484        2.5396045562
 H        -7.5732625791        1.1538800424        2.0540452124
 H        -9.5591615664        0.3771897318       -0.1668399472
 H        -8.7842656355       -0.7974340628        0.7928324763
 H        -6.4610697485        0.4157758362       -4.4771173876
 H        -6.2965483804        1.8788589651       -3.6006339203
 H        -8.9003369958        1.3950474834       -5.2555939695
 H        -7.4671722359        2.1069515904       -5.8006447532
 H       -10.9111098839        6.6769924443       -3.4699315646
 H       -10.8204143127        7.4326954226       -5.1521091071
 H        -9.6505315440        9.0282819779       -3.8224793069
 H        -8.1994503069        8.0012267414       -4.4664194644
 H        -4.4159030397        5.5783932383       -1.2403319263
 H        -4.2423239683        7.2747061639       -1.9630484686
 H        -4.5510953764        6.0112895705       -3.0002423662
 H        -5.3632538878        9.1920599181       -2.3477962473
 H        -6.7505907718        9.9496554296       -3.0870056039
 H        -5.9500433409        8.6334732418       -3.8418164573
 H        -8.0172271852        7.7778099588        0.0286473262
 H        -8.4457465944        9.4329649378       -0.7008851988
 H        -6.7836033991        8.9936352139       -0.0676228034
 H       -10.3770527708        4.7629998102       -7.1841358367
 H        -9.9064919617        3.0077812896       -7.0658300420
 H        -8.6658010737        4.1346447036       -7.1447245365
 H       -11.5797983767        3.0182755324       -4.8632580614
 H       -11.7850030757        4.7105883199       -5.2682340780
 H       -11.1263772166        4.1783966711       -3.6822892072
 H        -5.1874190849       -0.8250800719       -0.9333810460
 H        -5.1948909958        0.4000664585       -2.2565456719
 H        -5.5611370578       -1.3863321384       -2.6933899386
 H        -7.3445789966       -2.8525015268       -1.7019258786
 H        -7.9410115674       -2.1350258841       -2.9796072908
 H        -9.0034281341       -1.9585041009       -1.7526209070
 H        -6.8844702695        5.3225332035        2.2222211899
 H        -7.2549917148        4.6561353470        0.6826451629
 H        -6.2366644610        3.7063344357        1.5697632012
 H        -8.8662326395        3.0099618884        4.3791607755
 H        -7.6550964601        4.3673434472        4.1735780080
 H        -7.1821221277        2.6209239734        3.6196414878
 H       -13.5132166078        8.1502257697        3.3710366332
 H       -14.6034179293        7.1528377835        2.3686446844
 H       -13.1025509459        6.8503931249        2.0595260442
 H       -14.5258507254        7.1743557438        5.5965714683
 H       -15.2197911799        5.5872738872        5.5861177888
 H       -15.8093668905        6.6046478459        4.4834839672
 H       -11.5230192744        0.6346496351        1.6989305097
 H       -12.1400132256        0.3324960327        0.0690345932
 H       -11.7318362769       -0.8721939859        1.0822085867
 H       -14.9091732793        1.4996723037        1.0709417608
 H       -15.5747096637       -0.0079821019        1.4197559653
 H       -14.6095969238        0.0408971019        0.1519078722
 Na       -8.8699277397        4.5013131737       -1.2016592073
