117

 C       -12.9924228712       -1.9406837760        2.9104798069
 C       -13.9041141306       -0.6911045023        3.0424579417
 O       -14.9039305987       -0.5868104303        3.6979896132
 C       -13.5476899394        0.4551592257        2.0742973724
 C       -13.1889211395        1.7191190333        2.9665552885
 O       -12.0757657022        2.2546691113        2.9914529200
 C       -14.1898133583        2.1768437849        4.0027220754
 C       -13.6923458738        3.5475178957        4.4501168927
 C       -14.0113844179        4.6871438802        3.3692877194
 O       -14.0724288503        4.3224566929        2.1898779684
 C       -13.8667670715        6.1168133578        3.9418246398
 C       -12.3129483767        6.2479834053        4.6068598182
 O       -12.2627459850        6.4077709468        5.8152027688
 C       -11.0692260810        6.3691370575        3.7410010696
 C       -10.5519800361        4.9670668837        3.1359739787
 C        -9.4626939644        4.9788519418        1.9889602149
 O        -9.6360673735        5.6893690564        0.9467243179
 C        -8.3278882908        3.7934929849        2.2008574056
 C        -8.9465726769        2.5782239347        1.3010713540
 O        -9.3613170110        2.8033750088        0.2091231009
 C        -8.7373311699        1.1151535571        1.8768147317
 C        -8.5638135543        0.2471747184        0.7068725914
 C        -7.4426585121        0.5274244721       -0.3869655231
 O        -6.5767488362        1.3472415995       -0.2578276757
 C        -7.4332838588       -0.4839310326       -1.5946357800
 C        -8.0325115124        0.5279861645       -2.7461249956
 O        -9.2012442687        0.7855640740       -2.5829258674
 C        -7.3405228345        1.0670843437       -4.1104390041
 C        -8.1476393985        1.9541511113       -5.1130416992
 C        -8.4617265751        3.2775715049       -4.4399502137
 O        -7.9706330098        3.6851419542       -3.3993031083
 C        -9.6130182611        4.0137074964       -5.1842740378
 C        -9.1647465599        5.5805197482       -5.3601734066
 O        -8.2968748920        5.8703949271       -6.1250108781
 C        -9.8737794429        6.5279133904       -4.4649987345
 C        -9.0503951871        7.7240703766       -3.9591522321
 C        -8.4303515739        7.3032017374       -2.5427190264
 O        -9.2194409968        6.7903688319       -1.8061610162
 C        -7.0490939547        7.9424771033       -2.1110340327
 C        -6.1657674894        6.7384973629       -1.6527300832
 O        -6.6316976792        5.6788782377       -1.1868956906
 C        -4.6290179763        6.8633185223       -1.7669888428
 C        -6.4051492165        8.8587907076       -3.1882750010
 C        -7.0652044851        8.6459347228       -0.6787205747
 C        -9.8155286436        3.4590952264       -6.6813684597
 C       -10.8773087148        3.7369346052       -4.4398187731
 C        -6.0170172980       -1.0952802788       -1.8457763640
 C        -8.5878834403       -1.5714931895       -1.3440316000
 C        -7.0428959837        4.0168975407        1.5304984959
 C        -8.2256500221        3.5254749967        3.6641336864
 C       -13.9595746956        7.1785115622        2.8312201645
 C       -14.8676576243        6.3100073476        5.0171989578
 C       -12.2400839274        0.1839257866        1.2729206491
 C       -14.7183588438        0.7748954689        1.0220334140
 H       -13.4200357250       -2.3573313369        2.0603470100
 H       -13.1717327460       -2.6169507848        3.6895136587
 H       -11.9234209706       -1.7797019032        2.6842143238
 H       -14.2751296765        1.4640952647        4.8062945001
 H       -15.1727246892        2.2833635296        3.5929048038
 H       -12.6451025871        3.5521565299        4.7602241034
 H       -14.3503374244        3.7493496606        5.2720806250
 H       -10.2731790713        6.9058828174        4.2333769411
 H       -11.1741849745        7.0536664452        2.9286222721
 H       -11.3995788792        4.6769590011        2.6102785678
 H       -10.2076551596        4.2239803975        3.8333063492
 H        -9.6550444463        0.7907313960        2.4382893629
 H        -7.8984716536        1.1200154020        2.6002944370
 H        -9.5591530355        0.1728170987        0.2644243361
 H        -8.4672367287       -0.7857850420        1.0682057768
 H        -7.1846407206        0.2227941028       -4.7275123328
 H        -6.3363993621        1.4407720470       -3.9056404271
 H        -9.0837212723        1.5431079623       -5.3590664879
 H        -7.6717184950        2.0132057356       -6.1411727276
 H       -10.0825450168        5.9137073551       -3.6102984405
 H       -10.8339528902        6.8775629338       -4.7855060558
 H        -9.6660968394        8.5504879752       -3.6446158885
 H        -8.3686317155        7.9813574201       -4.8058437336
 H        -4.1688959972        6.1103529284       -1.2007011347
 H        -4.2108967174        7.8732925420       -1.4935590471
 H        -4.4419449661        6.7793769842       -2.8635552396
 H        -5.3221653799        8.7823713743       -3.4115590673
 H        -6.6950606854        9.8987380012       -2.9214151211
 H        -6.8169668864        8.8040532182       -4.1754547112
 H        -7.7677586251        8.0102617028       -0.0397706090
 H        -7.6469970916        9.4944691956       -0.9318111926
 H        -6.0797470352        8.9100151608       -0.1472226248
 H       -10.5361022799        4.0198033795       -7.1854434085
 H       -10.0877495441        2.3805274911       -6.7320071956
 H        -8.7796657307        3.5679360668       -7.1672909434
 H       -11.0893930776        2.6359993465       -4.5126393648
 H       -11.7720873928        4.3641520562       -4.7484493001
 H       -10.6840758752        3.8746794618       -3.3404496110
 H        -5.9062745888       -2.0125293418       -1.2877132860
 H        -5.2705374516       -0.3780913015       -1.5741535783
 H        -6.0335242183       -1.3989905125       -2.9261997711
 H        -8.2695755060       -2.0950201278       -0.4868756773
 H        -8.3992415250       -2.4948025476       -1.9718919871
 H        -9.6074187612       -1.2059501445       -1.3622147071
 H        -6.4858902223        4.7493048966        2.2058727772
 H        -7.0647818380        4.3930960360        0.5187405057
 H        -6.4372445759        3.1099470237        1.5565731903
 H        -9.1259979230        2.8886783675        3.9463509498
 H        -8.4774917015        4.4560585574        4.0555438398
 H        -7.3208777401        3.0030110855        3.8997331812
 H       -13.1871246659        7.9619074819        3.0925072668
 H       -14.9137676183        7.7571913188        2.7603656786
 H       -13.7830801240        6.8993605676        1.8339770162
 H       -15.4263508731        7.2786057752        5.0470138666
 H       -14.4048811031        6.1822535763        6.0337112734
 H       -15.5205709386        5.4082635285        5.0686317956
 H       -11.4115145802       -0.4321576611        1.6868007956
 H       -11.8909373921        1.1779426288        1.0067794342
 H       -12.4604819941       -0.1635291790        0.3151065767
 H       -15.2280733476        1.6760732928        1.2055556721
 H       -15.4516798663       -0.0578957751        0.9785540623
 H       -14.5209638751        0.6488001690       -0.0741533374
 Na       -8.7573880340        4.6722649380       -1.4378652000
