117

 C       -13.2063192088       -1.9205591394        2.9298618298
 C       -14.0259553578       -0.6360077575        2.9516928140
 O       -14.9008360432       -0.5461672132        3.7492054114
 C       -13.5149986946        0.6785420163        1.9612862969
 C       -13.0750016691        1.7710801456        2.9843459142
 O       -11.9174352612        2.1630183835        2.9363599109
 C       -14.1266248862        2.2350194270        4.0894465659
 C       -13.7921571942        3.6490180037        4.5691981398
 C       -13.8709424761        4.7039533194        3.4502752675
 O       -14.0191040387        4.4564224806        2.2962731150
 C       -13.8053595830        6.1570865391        3.9695842938
 C       -12.3486968420        6.3603607856        4.4397676895
 O       -12.2526302091        6.4292086689        5.6274739035
 C       -11.0542541372        6.4171840664        3.5048237037
 C       -10.8174167719        4.9395923374        2.8693154140
 C        -9.5339038061        4.9397356675        2.0131439885
 O        -9.4198142525        5.6888771672        1.1117968906
 C        -8.3806617930        3.8589876060        2.1742023360
 C        -8.9158809041        2.6694614193        1.2845480225
 O        -9.3965280216        2.7677613022        0.1661082535
 C        -8.6799033222        1.3248059966        1.8347785848
 C        -8.5521055129        0.2061156168        0.8658105902
 C        -7.3783475728        0.3746399807       -0.1745418260
 O        -6.6212989637        1.3087379171       -0.0917895276
 C        -7.5734878938       -0.4260619692       -1.5009087180
 C        -8.2194870829        0.5305115617       -2.7174215137
 O        -9.3537294972        0.9451120378       -2.5797468883
 C        -7.3226265483        0.8392326813       -3.9069257653
 C        -8.0744338439        1.7021840711       -4.9624827922
 C        -8.4636360180        3.0592679450       -4.4726425041
 O        -7.9854933990        3.5218780593       -3.4261029592
 C        -9.5466263228        3.8717342246       -5.2685440590
 C        -9.0071994157        5.3508964703       -5.3820215263
 O        -8.2331305314        5.6968071005       -6.2000949652
 C        -9.7867896973        6.4055394352       -4.5402258276
 C        -9.0000741309        7.6210467715       -3.9673558805
 C        -8.4988123564        7.5078357323       -2.4704987317
 O        -9.1879579344        6.8522529121       -1.6996831683
 C        -7.0765514349        8.0304039014       -2.1927764930
 C        -5.9955270949        6.7659806845       -1.8547606166
 O        -6.5033291789        5.7865399079       -1.3542075219
 C        -4.4416254326        6.9975605403       -1.6869598570
 C        -6.3232065229        8.8608055752       -3.2499924422
 C        -7.0217195241        8.7292014764       -0.8092928289
 C        -9.9450225284        3.2658534950       -6.6069538991
 C       -10.8002159857        3.5979647941       -4.3070117507
 C        -6.2920775665       -1.1426981823       -1.9696477491
 C        -8.7232500925       -1.5026449308       -1.3851426375
 C        -6.9845216603        4.1091171295        1.5198649204
 C        -8.2036546183        3.3525820475        3.6600358880
 C       -14.1628118714        7.0714727647        2.6644543698
 C       -14.8808171617        6.3913495854        5.0631783533
 C       -12.2958871099        0.2587455713        1.1235967446
 C       -14.6954149856        0.9906509167        1.1323829125
 H       -13.2277950393       -2.3787972975        1.9776767855
 H       -13.5929917049       -2.6852883642        3.6898091131
 H       -12.2726157443       -1.6124868251        3.1519076069
 H       -14.0110592928        1.6499784619        4.9474541433
 H       -15.0981255453        2.1591816659        3.7461752907
 H       -12.7354185501        3.6020499281        4.7579402389
 H       -14.3170162610        3.8857173039        5.5298796366
 H       -10.1651844614        6.6171009238        4.1608854093
 H       -10.8485187822        7.1901217058        2.7777446109
 H       -11.6815268118        4.7530170058        2.2270118490
 H       -10.6233302851        4.1435485039        3.5819773862
 H        -9.5706439528        1.0722269415        2.5969863162
 H        -7.7968767643        1.4164246897        2.4142041869
 H        -9.5124858907        0.0986373866        0.3276462448
 H        -8.5654738117       -0.7218986250        1.3796230896
 H        -7.0763053829       -0.0547187104       -4.5585643562
 H        -6.3773631407        1.2270200324       -3.4884279064
 H        -8.9774682950        1.1723305636       -5.3820017966
 H        -7.5320566313        1.8966243966       -5.9044896489
 H       -10.4347481924        5.9244723658       -3.8398105137
 H       -10.4185494013        6.8311690126       -5.2165536942
 H        -9.4843838007        8.5886955425       -4.0146223669
 H        -8.2185701552        7.5818812124       -4.6091240174
 H        -3.9399220225        6.1993273044       -1.1027732851
 H        -4.4224434252        7.9460518056       -1.0490035845
 H        -3.9840045657        7.2761418257       -2.5632454378
 H        -5.3192079908        8.9130230305       -3.2533394563
 H        -6.8317160321        9.9014917459       -3.2825052696
 H        -6.5744817502        8.4902313597       -4.3173484040
 H        -7.6305081391        8.2466022465       -0.1243210557
 H        -7.4986742617        9.6529061521       -1.0075930782
 H        -6.0062127107        8.8703526280       -0.4455837795
 H       -10.7861963414        3.7676664757       -7.0389612114
 H       -10.2491722062        2.1971609018       -6.3802446681
 H        -9.1242656988        3.2549396578       -7.3001051977
 H       -10.9556066971        2.5071893205       -4.3205839828
 H       -11.7165367299        4.1465381057       -4.6895857763
 H       -10.6526235596        3.8638536579       -3.2537812797
 H        -6.2081666420       -2.0925994903       -1.4777338888
 H        -5.5196536165       -0.4415846014       -1.6958088996
 H        -6.2849379648       -1.3953050267       -2.9769926553
 H        -8.7140302039       -1.8604910836       -0.3669967700
 H        -8.3996610030       -2.4151830542       -1.8396886763
 H        -9.7295175275       -1.1438530695       -1.7016199268
 H        -6.3962664497        4.8065896661        2.2155788379
 H        -6.9247731626        4.4727443564        0.4983318562
 H        -6.4222587684        3.1094155274        1.6327399324
 H        -9.0022439823        2.8183244652        4.3436885054
 H        -7.9459125278        4.3304764478        4.1295538436
 H        -7.4426563275        2.6662320018        3.4482774474
 H       -13.6105956253        8.0691367051        2.6681525894
 H       -15.1698731161        7.4030456100        2.7636630762
 H       -13.9804555579        6.6966830600        1.6294682830
 H       -15.6100036460        7.0916209437        4.6363968887
 H       -14.5855585085        6.8534469604        5.9500389178
 H       -15.3443330371        5.4433218622        5.4289545982
 H       -11.7093157097       -0.5713074041        1.6174167535
 H       -11.6064815756        1.1425507048        0.7928939668
 H       -12.6560356349       -0.1725559046        0.0946821538
 H       -15.2590594292        1.8638615444        1.5365757857
 H       -15.3951706281        0.1141735241        0.9293472239
 H       -14.5727951922        1.1544759578        0.0399116128
 Na       -8.7911337801        4.6647068940       -1.2477298393
