117

 C       -13.3786038214       -1.9932013675        2.9340483698
 C       -13.9296023145       -0.5378598066        2.9380076953
 O       -14.9183197890       -0.3270009734        3.6583882434
 C       -13.5529096316        0.5919530360        1.9824394443
 C       -12.9786601104        1.7161921805        3.0022180706
 O       -11.8320312290        2.1034604446        2.9913877842
 C       -13.8887564633        2.2297556344        4.0208572850
 C       -13.7549155638        3.6736498466        4.6753004441
 C       -13.8570064027        4.7034331668        3.5097491019
 O       -13.9760755801        4.3698264319        2.3473567017
 C       -13.9265613083        6.3234744908        3.8839104934
 C       -12.3762490175        6.4553266517        4.3716824589
 O       -12.0236760269        6.5039280698        5.5252700468
 C       -11.2460178858        6.3015882632        3.3393373042
 C       -10.9315035712        5.0014160271        2.6970547648
 C        -9.4565187970        5.0276727311        1.9825825282
 O        -9.2284300184        5.7614669903        1.0989683443
 C        -8.4057178620        3.8195675867        2.1645825627
 C        -8.8841806537        2.6266351445        1.2475815704
 O        -9.3673780780        2.8828181256        0.1123126467
 C        -8.5987185595        1.2728934097        1.9118427046
 C        -8.5913382013        0.1051229304        0.9311121307
 C        -7.6655324195        0.4288172146       -0.1827865095
 O        -6.6317173633        1.0782656355        0.0677801739
 C        -7.8148390097       -0.4520065567       -1.4905271638
 C        -8.3087665024        0.5758936148       -2.5867728193
 O        -9.4067932443        1.0913648248       -2.6221278434
 C        -7.2983521301        0.6580228943       -3.6821975155
 C        -7.9248493469        1.3608020993       -4.8331075243
 C        -8.3791096103        2.8495703831       -4.4295795122
 O        -8.0164254393        3.3965009295       -3.3867899504
 C        -9.5641725564        3.6094037765       -5.2445771673
 C        -9.1440127498        5.1947995976       -5.3929036765
 O        -8.1754912539        5.4143086068       -6.1378051526
 C        -9.8141964817        6.4044752535       -4.5712070178
 C        -8.8651152298        7.5104278425       -4.1523985135
 C        -8.3180178407        7.4220779277       -2.6448025177
 O        -9.0070112320        7.1020675131       -1.6318901401
 C        -6.9640034610        8.0267264209       -2.2491308028
 C        -5.9729076373        6.8168106965       -1.7372524424
 O        -6.3505286036        5.6930993313       -1.6122313459
 C        -4.5216516443        7.1395722762       -1.6681334485
 C        -6.3084739811        8.9306762528       -3.3052512369
 C        -7.0871590494        8.9286139384       -0.9220320724
 C        -9.9712059421        3.1379547125       -6.6048526285
 C       -10.7768414391        3.6013213234       -4.1606986396
 C        -6.4923879618       -1.1206223559       -1.9684995176
 C        -8.8716984034       -1.6433971619       -1.4560523731
 C        -7.1065260769        4.3604854296        1.6368680363
 C        -8.2075719556        3.3723231012        3.7488266657
 C       -14.2653103783        7.0819538605        2.5063473829
 C       -14.8191512865        6.6269735712        5.0320493881
 C       -12.4286262071        0.3186577515        0.9678132421
 C       -14.7956870274        1.2531595579        1.2566996337
 H       -12.8934219373       -2.2690783755        1.9389367185
 H       -14.1158041980       -2.7546444286        3.1474521927
 H       -12.6229418692       -1.9362919838        3.7484473056
 H       -13.8082404480        1.5306130360        4.8570481813
 H       -14.9561767823        2.2189075247        3.6116250325
 H       -12.7807045930        3.8439833105        5.1511760847
 H       -14.5732615585        3.7856985173        5.4164791959
 H       -10.2857252194        6.6604340999        3.7652227380
 H       -11.3206475230        7.0442487664        2.4913307900
 H       -11.6493948939        4.8675544423        1.8005564615
 H       -10.9000631562        4.0704905037        3.3066516480
 H        -9.2631586657        1.1414563730        2.7397570354
 H        -7.5536622600        1.4167528537        2.2884865193
 H        -9.5978457875       -0.1735082801        0.6328023622
 H        -8.2426491171       -0.8723174375        1.2756488084
 H        -6.8807423935       -0.2889219209       -4.1602898522
 H        -6.4510844395        1.2592088256       -3.2614728244
 H        -8.7745855410        0.8146087525       -5.3614693338
 H        -7.2418083816        1.5271229099       -5.6377546599
 H       -10.3900489542        6.0413479752       -3.7198282219
 H       -10.5796057795        6.8560044207       -5.2456914412
 H        -9.3648146336        8.4569507956       -3.9480718266
 H        -8.0846824492        7.5809266820       -4.9125378445
 H        -3.9511530708        6.2145525805       -1.3221798806
 H        -4.3559207479        7.8775763999       -0.9435687251
 H        -4.1961058018        7.5568855263       -2.6392123708
 H        -5.4788707331        9.6552262164       -2.9563137941
 H        -7.1003935816        9.5023786811       -3.7117799028
 H        -5.8320341651        8.4231969392       -4.1644698579
 H        -7.6225598360        8.4537968723       -0.1501815473
 H        -7.6708389149        9.8490366881       -1.0885552411
 H        -6.1451181886        9.1133271232       -0.6529161535
 H       -10.8235516580        3.8371170880       -6.9423806635
 H       -10.3956505600        2.1676868489       -6.5602724230
 H        -9.2021446347        3.2484399342       -7.3080501271
 H       -11.1114036632        2.6087175948       -3.9380590170
 H       -11.5623199736        4.1692680850       -4.6251553902
 H       -10.5895667429        4.1292249544       -3.2328778356
 H        -6.2511440359       -1.8078620879       -1.1564440278
 H        -5.8077545110       -0.2884425778       -2.0116396711
 H        -6.5151072878       -1.8022420013       -2.7562291720
 H        -8.7494183486       -2.3429005021       -0.5478895099
 H        -8.7114538637       -2.2576630910       -2.3183686287
 H        -9.8262122928       -1.1217059725       -1.4248494072
 H        -6.7106965689        5.0839037608        2.3122793050
 H        -7.2332269474        4.8705998670        0.6085113492
 H        -6.3368627288        3.5370964788        1.5695991027
 H        -8.9304015244        2.9523732514        4.3617997400
 H        -7.7869618762        4.3527576381        4.2018892263
 H        -7.4835230017        2.5852460739        3.4621164350
 H       -14.0420640495        8.1217592685        2.3755091987
 H       -15.3524233731        7.0668568291        2.4490791558
 H       -13.7456824291        6.6046577556        1.5690741828
 H       -15.7213167526        7.0582923474        4.7407346538
 H       -14.4189364526        7.4387679179        5.6173482308
 H       -14.9013686247        5.8064202313        5.6809757099
 H       -11.5529164951       -0.2187708921        1.4488055554
 H       -12.0677133365        1.2510118862        0.4206347749
 H       -12.7880319389       -0.3945791350        0.1120258430
 H       -15.3651679217        1.9879685119        1.9182844147
 H       -15.4178357732        0.7405655003        0.5592178685
 H       -14.3889829084        1.9577352422        0.5424399641
 Na       -8.7735474620        4.6552654745       -1.0274458941
