117

 C       -13.5920608427       -1.7147282822        2.5512558130
 C       -14.3214558691       -0.3224124680        2.8537910666
 O       -15.2223510736       -0.1417361954        3.6678536788
 C       -13.7016746150        0.9635789111        2.0955042961
 C       -12.8664801751        1.7882839592        3.1529253665
 O       -11.6420494429        1.8557681256        3.0477530414
 C       -13.5714335322        2.2722581272        4.3959059936
 C       -13.5179168757        3.8037788092        4.6628470079
 C       -13.7596843224        4.7633843653        3.4566158529
 O       -14.0695788066        4.2837259501        2.4158492042
 C       -13.7433258679        6.4087640433        3.6104926448
 C       -12.1960430549        6.6861139050        3.9340831651
 O       -11.8000085902        6.7294154858        5.0756935498
 C       -11.1633026383        6.6540263722        2.6539786758
 C       -10.8014432182        5.0996504312        2.4492898345
 C        -9.4466009294        5.0929285947        1.7513367484
 O        -9.2368664325        5.8988783194        0.8686173259
 C        -8.5478327389        4.0403084439        2.3502508330
 C        -8.6889717685        2.7568646433        1.5002251835
 O        -8.7116840137        2.8478172543        0.2606443497
 C        -8.7478042243        1.3763626009        2.0136259985
 C        -9.0872163342        0.3063991949        0.9389046199
 C        -7.8965587060        0.0957514957       -0.0217451934
 O        -6.8700751030        0.7098489686        0.2461443740
 C        -8.1084231718       -0.8667058959       -1.4564668514
 C        -8.2603392180        0.1645586399       -2.5045992188
 O        -9.3222892077        0.7841077678       -2.5493835378
 C        -7.2182898381        0.3882901178       -3.5744479185
 C        -7.8537878128        1.5565053529       -4.4276102964
 C        -8.5316745625        2.8294498332       -3.9857792848
 O        -8.1232543021        3.4600550949       -2.9950725592
 C        -9.7408643212        3.4596292903       -4.8584402203
 C        -9.1207736049        4.8020883742       -5.1941952755
 O        -8.0645052330        4.8395346629       -5.8502357126
 C        -9.5981839536        6.0840627325       -4.4994468882
 C        -8.4393053682        7.0771145562       -4.4832343686
 C        -8.1297834564        7.4221113487       -2.9541953087
 O        -8.8865475679        6.9933992109       -2.1345604550
 C        -6.7383858946        8.1864043081       -2.3780590559
 C        -5.9235005777        6.9735926383       -1.8891625199
 O        -6.4368722391        5.8650395978       -1.8175047069
 C        -4.4461876322        7.2609374393       -1.5652784925
 C        -6.1885260900        9.0162342605       -3.7170112027
 C        -7.2136660959        9.0489069220       -1.1958845611
 C       -10.0590982293        2.8216761369       -6.2409604543
 C       -11.0292106833        3.4665173607       -3.9861450933
 C        -6.8908189219       -1.7557290683       -1.6330652159
 C        -9.2821412782       -1.8002006290       -1.4890097110
 C        -6.9704367981        4.4474090929        2.0400254403
 C        -8.6352480391        3.9535455096        3.8990226818
 C       -14.3799868278        6.9054405933        2.3107699728
 C       -14.5356027051        6.7069804773        4.9585672898
 C       -12.7616949305        0.4542596034        0.9818733013
 C       -14.9473563564        1.7350601009        1.4791106062
 H       -12.6309884530       -1.6210504388        2.9915338172
 H       -13.3447217576       -1.9653390004        1.5132264417
 H       -14.0711341610       -2.4271612325        3.1127986749
 H       -13.0585858028        1.8969837662        5.1974171690
 H       -14.5867283905        1.9638418583        4.3842863664
 H       -12.5163490952        4.0411609157        4.9048576449
 H       -14.1799088753        4.0696694458        5.5202075238
 H       -10.2845499310        7.3127137619        2.8102993241
 H       -11.6179250327        6.9003782237        1.7139182882
 H       -11.4720355589        4.6568618036        1.7076165956
 H       -11.0036334903        4.4569559046        3.2647646811
 H        -9.3215812768        1.2019088108        3.0108674848
 H        -7.6905871066        1.1510330642        2.1477848118
 H        -9.9648723763        0.4012945045        0.2692361936
 H        -9.3102206893       -0.5907663956        1.4959977966
 H        -7.2383826271       -0.4984164307       -4.2586677280
 H        -6.2253269384        0.6273399101       -3.3406323550
 H        -8.6117569759        1.1604189567       -5.1681578307
 H        -7.1138003528        2.0522528551       -5.0464089772
 H       -10.0003543082        6.0309813012       -3.4973477838
 H       -10.3620970260        6.5034982028       -5.0534481491
 H        -8.7180570558        7.9400183005       -5.1355441682
 H        -7.5436847315        6.6587445116       -4.8159177711
 H        -3.7491093137        6.4119911597       -1.3215882221
 H        -4.4640245482        7.9838497858       -0.7420977199
 H        -4.1067024659        7.7959953980       -2.4132251349
 H        -5.7252891122        9.9993092440       -3.4331609760
 H        -6.9768374515        9.2629042848       -4.4372179681
 H        -5.3571165372        8.4172592799       -4.1958158812
 H        -7.7792443431        8.4726782546       -0.4586351220
 H        -7.9499447321        9.8852706546       -1.5333572020
 H        -6.3364993056        9.4247332076       -0.7536567657
 H       -10.8505761613        3.4570189465       -6.7206428070
 H       -10.6415048830        1.9056010834       -6.0137620110
 H        -9.2848129284        2.8104598426       -6.9425168644
 H       -11.5128240990        2.4711010540       -4.0594162361
 H       -11.7955756310        4.2481117001       -4.2429921220
 H       -10.8199506397        3.7776181243       -2.9379535997
 H        -6.8913873543       -2.6730381553       -1.0129257605
 H        -6.0007197389       -1.0864948827       -1.6146139356
 H        -6.9928732615       -2.1116178589       -2.6489369317
 H        -8.9579948372       -2.7833644518       -1.0774235722
 H        -9.5836985686       -1.8055572636       -2.4871762687
 H       -10.0947118916       -1.4358753508       -0.8443229887
 H        -6.8005159127        5.4901090597        2.1415448670
 H        -6.7866290849        4.2572973328        0.9703300921
 H        -6.2825315240        3.9673847599        2.7374234785
 H        -9.5007798236        3.3192272440        3.9732348285
 H        -8.8147565996        5.0602307767        4.1451969995
 H        -7.7389657963        3.5055286107        4.3797771493
 H       -14.2777628169        7.9414819891        2.0337148281
 H       -15.3761456206        6.6886941003        2.2570383386
 H       -13.6226820953        6.5545981597        1.5973519090
 H       -15.4347269299        6.0053138476        4.9983384319
 H       -15.0071820673        7.7145562485        4.9819321587
 H       -13.9519449993        6.4932610950        5.9191309160
 H       -11.8766393742        0.0127341055        1.3588993244
 H       -12.3260086476        1.3214620390        0.5051287294
 H       -13.3250229757       -0.2565069072        0.3670596958
 H       -15.8609150800        1.0352390248        1.2867120424
 H       -14.7418313788        2.0960489234        0.4753087130
 H       -15.4544877225        2.5279298154        1.9882589696
 Na       -8.2843900451        4.8920714495       -1.2045243287
