117

 C       -12.9989495841        2.4444230374      -10.5683795186
 C       -13.0423446626        0.9291316050      -10.1790870670
 O       -14.1612349620        0.4396091459      -10.0036135019
 C       -11.8211905958       -0.0595508683      -10.0626905369
 C       -11.3828797197       -0.1045221008       -8.5665007944
 O       -11.1291472696       -1.1877180689       -8.0782249190
 C       -11.2120477051        1.1730306107       -7.8010440246
 C       -10.8629421095        0.8825077148       -6.2584474713
 C       -10.2530351188        2.0793164226       -5.5208579449
 O       -10.0681525710        3.1617426127       -6.0092029375
 C        -9.9793475840        1.8762855932       -3.8721599098
 C        -9.3322488047        3.1576049024       -3.3429689625
 O        -8.1583915627        3.1219981518       -2.9893305912
 C       -10.1692292879        4.4599725379       -3.3320953581
 C        -9.3799254370        5.6392042036       -2.8446152810
 C        -9.1248162306        5.6451211180       -1.3663520437
 O        -9.1635688986        4.6269142518       -0.7423778854
 C        -8.8430487453        6.9875368604       -0.6989735665
 C        -9.9007349155        7.3573599415        0.4361871106
 O       -10.4748664458        6.4624451528        1.0351629943
 C       -10.1066633494        8.8342334520        0.8029083224
 C       -10.9433341106        8.8599261737        2.0696302968
 C       -10.2199887320        8.0981786565        3.3195785195
 O        -9.0637741563        8.2027992979        3.5577535685
 C       -11.0179092757        7.1934715930        4.3483059523
 C        -9.9727430772        6.1308853606        4.9235991252
 O        -9.2994477746        5.4693671456        4.1713162364
 C        -9.8775455827        5.9882471067        6.5042806020
 C        -9.4497400363        4.6838959426        7.2074074989
 C       -10.5093596684        3.6178507324        7.0678191903
 O       -11.6200727407        3.9316339496        6.9103605127
 C       -10.0146030343        2.0350207749        7.3887031078
 C        -8.9942461847        1.7567279467        6.2859668246
 O        -7.8762968195        2.3314606697        6.3106117270
 C        -9.3380381171        0.7930927761        5.0488027548
 C        -8.3839854880        0.6390146831        3.9371889461
 C        -8.2701605019        1.8507690598        3.1179033716
 O        -9.1772347742        2.6208593154        2.9136509925
 C        -6.7819408105        2.1864866257        2.5166871146
 C        -6.4486288824        3.6399007759        2.9205445099
 O        -6.9653966345        4.5922035938        2.3239302287
 C        -5.6772521979        4.0665297420        4.1315359387
 C        -5.7259739768        1.1531580598        2.9685841953
 C        -7.0384860915        2.1579625050        0.9568709035
 C        -9.3372315318        1.9838381843        8.7524964991
 C       -11.3636983321        1.1153623661        7.3988217580
 C       -11.5192898771        8.1602999487        5.5342697151
 C       -12.0476408895        6.3268480212        3.6408773571
 C        -7.3965283332        7.0191890153        0.0523348871
 C        -8.8352150628        8.1754883805       -1.7076761951
 C       -11.4324077473        1.8126032912       -3.3578646769
 C        -9.2221571293        0.5816413591       -3.5750921911
 C       -12.2205014311       -1.5176716674      -10.6048713569
 C       -10.6949378842        0.5813861195      -10.8336240573
 H       -14.0561216052        2.7352153883      -10.7684477032
 H       -12.5030991813        2.4510156932      -11.4939336937
 H       -12.5146798577        2.9665024187       -9.7176450738
 H       -12.1299404350        1.7829804700       -7.8681823677
 H       -10.3650360079        1.8128978571       -8.2401924008
 H       -10.1733122163        0.0269979422       -6.2201954140
 H       -11.8267715058        0.4467755477       -5.8452355460
 H       -11.1351861061        4.4695983251       -2.6925281811
 H       -10.6100493088        4.6708722183       -4.3051318334
 H        -9.8451002975        6.5475046195       -3.2711616205
 H        -8.3647339056        5.7094791266       -3.1848840547
 H       -10.5632802997        9.3874738327       -0.0084621627
 H        -9.1537657326        9.3906768617        1.1066256426
 H       -11.9513923928        8.4076540414        1.9602586832
 H       -11.2027567030        9.8853242483        2.2794458977
 H       -10.7624754707        6.3922616886        7.0376683039
 H        -9.1622607896        6.7789120508        6.8414348493
 H        -9.2731734015        4.9548900278        8.2731782606
 H        -8.4579169951        4.3292043766        6.7834159436
 H       -10.2646469664        1.1918747453        4.6181403811
 H        -9.5047382776       -0.1290579288        5.6170333255
 H        -8.6776624572       -0.2205655400        3.3187730492
 H        -7.4248334903        0.3325565407        4.3333458176
 H        -6.0226320535        4.9445037419        4.6748925959
 H        -4.7160230896        4.3545558515        3.7568767296
 H        -5.6485547034        3.2614233398        4.8926249639
 H        -6.1055781850        0.1932223595        2.7223245586
 H        -5.4178106138        1.2570977909        4.0440667342
 H        -4.7197241925        1.4396574057        2.4687621960
 H        -8.0291509015        2.3207536366        0.7058856367
 H        -6.8683178313        1.0964532312        0.4959586830
 H        -6.2993180847        2.7898617474        0.4438011985
 H        -8.4540587275        2.6622446549        8.7597950300
 H        -8.8915581769        1.0762239124        9.1064828739
 H       -10.0583205264        2.2327128662        9.5129500168
 H       -11.0997815793        0.1095127025        7.2521987472
 H       -12.0775441078        1.3906759700        6.5706443784
 H       -11.7633033344        1.1651306552        8.4074200246
 H       -12.2602098168        8.9025165988        5.2395193783
 H       -10.5707217140        8.5728093457        5.9297005196
 H       -12.0415818368        7.6288051374        6.3291521779
 H       -11.5091834369        5.6979429642        2.8233307986
 H       -12.9221270142        6.9804915889        3.2955870238
 H       -12.4558909354        5.5631327619        4.3211100402
 H        -7.1571176705        7.8860858588        0.6363543101
 H        -6.6523742037        6.9451185089       -0.7770539608
 H        -7.3907625767        6.2315747862        0.7362986104
 H        -8.0721928230        8.0261493450       -2.5112133264
 H        -8.5182543532        9.1462344209       -1.2340703550
 H        -9.7882534725        8.3845509584       -2.0801843750
 H       -11.8376174707        0.8650273851       -3.5617924799
 H       -12.1254740384        2.5711096600       -3.7195033027
 H       -11.3529095275        1.8811732247       -2.2367667510
 H        -9.5268207434       -0.4291018180       -3.9797187443
 H        -9.2139092008        0.4202693633       -2.4430976817
 H        -8.1615593813        0.8159975467       -3.8138810767
 H       -13.2143836611       -1.8192566143      -10.3456515199
 H       -11.6514582798       -2.2486996168      -10.0673921484
 H       -12.1104375148       -1.5585111352      -11.7238893121
 H       -10.5869874754        1.6929244437      -10.6176497985
 H       -10.7897298149        0.5834504213      -11.9101587322
 H        -9.6555816009        0.2681689576      -10.7397142343
 Na       -9.1419612554        4.6617407096        1.7078764749
