117

 C       -13.7652394061       -1.6139274986        2.5701343697
 C       -14.3521747464       -0.2475478466        2.8295825196
 O       -15.3080006213       -0.2109253214        3.6299999230
 C       -13.8036630009        0.9698754517        2.1040905114
 C       -12.9571516224        1.8267628084        3.2128280918
 O       -11.7656946194        1.8357918169        2.9873591936
 C       -13.5630241289        2.4859532548        4.5457433667
 C       -13.3034908660        4.0031217854        4.7054039321
 C       -13.7086797496        4.7474152523        3.4427994111
 O       -14.0772149404        4.2745634496        2.3536921035
 C       -13.6545910116        6.2278604982        3.5405901645
 C       -12.1727796362        6.7031467365        3.7643821927
 O       -11.6481597575        6.8649030782        4.8821070579
 C       -11.2672346393        6.8085345218        2.5589572161
 C       -10.9046888271        5.3751439691        2.2461927229
 C        -9.3821619649        5.1120299838        1.6827966922
 O        -9.0718251022        5.6259365900        0.6521499962
 C        -8.4854314425        4.1242972318        2.4262112269
 C        -8.6193854237        2.8397960782        1.3472132250
 O        -8.4129530350        3.1661685761        0.1582822282
 C        -8.8634724227        1.3879517917        1.9222020441
 C        -9.1405684835        0.3442825492        0.8569719087
 C        -7.9519625900       -0.0241416379        0.0544444102
 O        -6.8365590655        0.4925824153        0.1922575683
 C        -8.1088084217       -0.9708607525       -1.1972099943
 C        -8.3708319873        0.1427493166       -2.3568782289
 O        -9.4540921515        0.6257667591       -2.5645005909
 C        -7.2253874760        0.4143037788       -3.3564175360
 C        -7.6543729479        1.5332744225       -4.4081358070
 C        -8.5964696241        2.6738988107       -3.7593070991
 O        -8.2795887658        3.4115935853       -2.8639566494
 C        -9.7604596334        3.2586988499       -4.6535842952
 C        -9.0540918185        4.6518873738       -5.1157708361
 O        -8.0675525199        4.5852118186       -5.8597109834
 C        -9.5916845490        6.0727044767       -4.7146427939
 C        -8.4223510333        7.0971106965       -4.5026778311
 C        -8.0564219383        7.4491550824       -3.0637518072
 O        -8.8232094366        7.1306355879       -2.1128170469
 C        -6.8559809610        8.1794915986       -2.6134418471
 C        -5.9060348138        7.0221765834       -2.0131236493
 O        -6.2039871886        5.9007075950       -1.6962790846
 C        -4.4296954301        7.3879604848       -1.5428225088
 C        -6.1925338325        9.0000587535       -3.6579922875
 C        -7.1486293083        9.0870021956       -1.3701568427
 C       -10.1230913312        2.5763123909       -6.0844102125
 C       -11.0036644271        3.5900702306       -3.9206337826
 C        -6.9402751411       -1.9553927875       -1.6114025388
 C        -9.5205453149       -1.8037143268       -1.2574669074
 C        -6.9739503151        4.4347288431        2.1708077132
 C        -8.6953875412        3.9105714920        3.9386818841
 C       -14.3853211104        6.8737559678        2.4224500089
 C       -14.5083871528        6.5783423095        4.7629186349
 C       -12.8204006143        0.7257212397        0.9526445711
 C       -14.9889291147        1.7522185087        1.6028107874
 H       -13.0964744544       -1.8220478902        3.4188588786
 H       -13.1979290619       -1.7631916466        1.7750952831
 H       -14.6481940527       -2.2641893794        2.8256595899
 H       -13.2174429276        1.9952195093        5.4056688296
 H       -14.6572882537        2.4225454406        4.4166270016
 H       -12.2699485913        4.2576182508        4.8553913617
 H       -13.9064244777        4.4598447483        5.4821091235
 H       -10.4598986633        7.4366692047        2.9010838808
 H       -11.7947499695        7.2332339786        1.6784792913
 H       -11.7935423500        4.8379938202        1.8232216390
 H       -11.0067105459        4.8645255494        3.2277711641
 H        -9.6729057597        1.4231452607        2.5370440379
 H        -7.8702469355        1.2088954261        2.5084771022
 H        -9.7624294040        0.7758996696        0.0908373848
 H        -9.7484569546       -0.4896000346        1.2169501220
 H        -7.0113460396       -0.5514877996       -3.9100444602
 H        -6.2769766287        0.8117404709       -2.8636349940
 H        -8.3205605812        1.1210399824       -5.2229738247
 H        -6.8635804864        2.1247094169       -4.8612258936
 H       -10.1724010828        6.1047805783       -3.8566764202
 H       -10.2102219997        6.4651315255       -5.5067504228
 H        -8.7778063341        7.9851318041       -4.9672973552
 H        -7.5199155887        6.8386061864       -5.0332222344
 H        -3.8147243063        6.5616175426       -1.1699440694
 H        -4.5976476467        8.0476759594       -0.7532978155
 H        -3.8494207919        7.9688356564       -2.3792806793
 H        -5.3677670312        9.6486506187       -3.0419538808
 H        -6.8505639262        9.7970631348       -3.9742303567
 H        -5.7740477936        8.5048650351       -4.5588280314
 H        -7.7366178019        8.5974839136       -0.6413391028
 H        -7.6754739853        9.9759352998       -1.6562715578
 H        -6.2136361808        9.3328019830       -0.9868474615
 H       -10.8819733014        3.1453422024       -6.7274994693
 H       -10.5693837314        1.6629391528       -5.8977446188
 H        -9.2321004407        2.5800219222       -6.6878101420
 H       -11.6128958564        2.6932310722       -3.6475108813
 H       -11.6879341776        4.3146657614       -4.4028987863
 H       -10.6975527919        4.1868055418       -3.0065350627
 H        -7.2150809725       -2.9533195193       -1.2741270207
 H        -5.9402452928       -1.6747894258       -1.3701321914
 H        -7.0284955854       -1.9499936594       -2.6952747261
 H        -9.5059600266       -2.6679062752       -0.5518718422
 H        -9.5041454288       -2.0014450404       -2.3114061614
 H       -10.3985690613       -1.2337358708       -1.1016857931
 H        -6.8485036423        5.5357781379        2.1745624113
 H        -6.6759732751        4.2221882709        1.0876968566
 H        -6.2918728267        4.0799356886        2.9670236316
 H        -9.5568611843        3.2649262825        3.9801370363
 H        -8.8223738308        4.9869526510        4.2557755599
 H        -7.7283318776        3.4688497652        4.4668303357
 H       -14.1425718378        7.8656153998        2.2282697153
 H       -15.4502099213        6.8102320996        2.6860250985
 H       -14.0175032875        6.4970829972        1.4686490800
 H       -15.3099977520        5.8709467710        4.9652555722
 H       -14.9881890368        7.6201619136        4.6750322788
 H       -13.8866644476        6.5337284172        5.6550565967
 H       -12.0607221132       -0.1683567890        1.0600912221
 H       -12.0944067415        1.5870141098        0.8898508565
 H       -13.4886257857        0.5062228685        0.0788910986
 H       -15.6323135688        1.3750730202        0.7478720163
 H       -14.7363559375        2.7589769260        1.2499721212
 H       -15.7114808662        1.8708296500        2.4533418697
 Na       -8.2030002748        4.8049637278       -1.2188142471
