117

 C       -13.8568702231       -1.7559770866        2.6170230168
 C       -14.4470255408       -0.3573963489        2.9146279275
 O       -15.3675567828       -0.0983247038        3.5975520773
 C       -13.9020283741        1.1471403402        2.1625126923
 C       -13.0430888242        1.8338393594        3.2048129938
 O       -11.8092396837        1.9977179786        3.1621592361
 C       -13.6457231239        2.4198290728        4.4412583162
 C       -13.0685345890        3.8682688849        4.5845872599
 C       -13.5910904682        4.7616612944        3.4230239924
 O       -13.9331372031        4.1884737253        2.4134494045
 C       -13.6775276129        6.3350686006        3.5679886400
 C       -12.1681192065        6.9204419664        3.6410137952
 O       -11.6379220321        6.9645291921        4.7415202693
 C       -11.2981721882        6.8951234920        2.3708614616
 C       -10.7705247115        5.5085937770        2.0492248461
 C        -9.3230478633        5.1685722531        1.6947642227
 O        -9.0534054020        5.5668574968        0.5456738784
 C        -8.3903130546        4.1391501657        2.3211238130
 C        -8.4642312409        2.8929801692        1.3639641735
 O        -8.2493522938        2.9707812099        0.1997002827
 C        -8.9727937690        1.5590534073        1.8338958941
 C        -9.1998466507        0.5030101847        0.7094047847
 C        -7.9152264310       -0.1339726889       -0.0366828486
 O        -6.7931693843        0.1569654110        0.1746067123
 C        -8.2344134319       -1.1139347838       -1.3309897345
 C        -8.4778530189        0.0010196628       -2.4187511386
 O        -9.5796770625        0.5296285745       -2.4392711029
 C        -7.2942944961        0.6430563638       -3.1147479950
 C        -7.5883131472        1.5743311378       -4.2851571253
 C        -8.6032742409        2.6401393570       -3.8080907063
 O        -8.3487447990        3.0191743820       -2.7146004246
 C        -9.7655259594        3.3470038336       -4.5953921475
 C        -8.9391584422        4.5964169708       -5.1635016012
 O        -8.0209641174        4.3688850298       -5.8760108207
 C        -9.4669203778        6.0023993460       -4.8863893682
 C        -8.4487461489        7.1584103583       -4.5511703626
 C        -8.1854288735        7.3751242553       -2.9865483013
 O        -9.0382155828        7.0245271090       -2.1608834182
 C        -6.7114465418        8.1487764398       -2.6843341322
 C        -5.7617974950        7.1111104212       -1.9960733177
 O        -6.0571395404        5.9893980646       -1.6716613239
 C        -4.3305622317        7.6058459964       -1.6043179984
 C        -5.9957556255        8.9913321846       -3.7745848630
 C        -7.0930743031        9.1074845366       -1.4992591836
 C       -10.1377218505        2.2967664568       -5.7803948560
 C       -11.0265075413        3.6268791390       -3.7841213206
 C        -7.0787287773       -2.0234141825       -1.4352107044
 C        -9.6835818638       -1.7722929156       -0.9323993858
 C        -6.9030450199        4.6520649304        2.3054355529
 C        -8.8468957972        3.7509635955        3.8288922952
 C       -14.3467930386        7.0358415167        2.2592212504
 C       -14.5360826850        6.7050494041        4.9295113246
 C       -12.9572587863        0.9554419953        0.9314337040
 C       -15.2295221569        1.7618511016        1.6680652880
 H       -13.3315826214       -2.2712251029        3.4372731030
 H       -12.9747663273       -1.5505906219        1.8706819687
 H       -14.7261477210       -2.3679469450        2.3385873908
 H       -13.1135076592        1.8356786166        5.3281354664
 H       -14.7566052446        2.3747114628        4.5003150591
 H       -11.9499346827        3.7702431992        4.6212532298
 H       -13.4132089928        4.3825666315        5.4523856333
 H       -10.5528489573        7.6513202462        2.6472981943
 H       -11.9280164454        7.2158397972        1.5108579542
 H       -11.4804240683        5.0870660315        1.2974988316
 H       -11.1824940833        4.7945861541        2.8579239538
 H        -9.9967437116        1.7318804104        2.1066287336
 H        -8.3619528312        1.2660959076        2.7061488466
 H        -9.9678379728        0.8496167099        0.0248489324
 H        -9.6828042130       -0.3223032376        1.2674676344
 H        -6.6248683982       -0.1325771944       -3.5273288275
 H        -6.7220150077        1.2595408525       -2.3159055893
 H        -7.9517112157        1.0144438576       -5.1156168299
 H        -6.7119038767        2.2308484718       -4.5684981392
 H       -10.1681879903        5.9732198462       -4.0458846052
 H       -10.0886494542        6.3419477042       -5.7766312365
 H        -8.7533969645        8.0707209988       -5.0316615548
 H        -7.4397238773        6.9049720258       -5.0339917333
 H        -3.6458300782        6.8223587994       -1.2872414057
 H        -4.4374955364        8.3284284942       -0.7515662565
 H        -3.8653597735        8.0982724294       -2.4695208376
 H        -5.0373838649        9.2057020490       -3.5286454997
 H        -6.4991630260        9.9931828972       -3.6075661472
 H        -6.1731671175        8.7809198669       -4.8485894108
 H        -7.7192622185        8.6177103816       -0.8022661039
 H        -7.6874962699        9.8095406818       -1.9228391599
 H        -6.2838622487        9.6760599349       -0.9891849078
 H       -10.8795073660        2.5240535493       -6.4706523045
 H       -10.3660657164        1.3746367043       -5.2576109916
 H        -9.1743364802        2.2352276111       -6.3555305323
 H       -11.4208112879        2.6946345369       -3.3641822026
 H       -11.8510188293        4.1245232942       -4.2875303444
 H       -10.7608326255        4.2953138978       -2.9475602071
 H        -7.3705181089       -2.8442676430       -0.8220507573
 H        -6.2346794776       -1.5655059334       -0.9630350123
 H        -6.7286147254       -2.2451706152       -2.4612547411
 H        -9.5892248322       -1.9651834173        0.0781010150
 H        -9.8362983806       -2.6438533760       -1.6246848277
 H       -10.5369535106       -1.1460085042       -1.1777146445
 H        -6.9142698502        5.7441728630        2.7096101009
 H        -6.4040373335        4.7120625170        1.3433430809
 H        -6.3409290664        4.1187433338        3.1129868017
 H        -9.8722107846        3.1829708038        3.8545426813
 H        -8.7288398448        4.6693696592        4.3012539558
 H        -8.0398824092        3.1728654658        4.2119380866
 H       -14.1199920289        8.1002159998        2.0827653963
 H       -15.4583466078        6.9379811685        2.4808100872
 H       -14.0017482222        6.6751082190        1.3445383711
 H       -15.3830794375        6.0789455574        5.0995451574
 H       -14.8113458524        7.7449131768        4.9141549749
 H       -13.9309148895        6.5086284891        5.7797937666
 H       -12.2892291704        0.0282692764        1.0388038190
 H       -12.1668554695        1.7708030855        0.7955010780
 H       -13.6581445203        0.7159402547        0.0918932885
 H       -15.4022628570        1.5954168990        0.6435420261
 H       -15.3521248860        2.8632751869        1.6771434712
 H       -16.1384699280        1.3866349707        2.2186734007
 Na       -8.1181056606        4.8581903328       -1.3037754559
