117

 C       -13.9601615479       -1.5992610654        2.6094958050
 C       -14.4651822299       -0.2137514916        2.8500280023
 O       -15.3378077266       -0.2164181716        3.6709802245
 C       -14.0442059831        1.0583607035        2.1750167033
 C       -13.1291795209        1.8984754335        3.2440528303
 O       -11.9116380646        1.9746499600        3.0704044864
 C       -13.8014074749        2.5537574380        4.5050806078
 C       -13.0603128145        3.8503247468        4.6770152181
 C       -13.5908745541        4.8616864865        3.4623821301
 O       -13.6916556044        4.3395968529        2.3995311539
 C       -13.6482889782        6.4557985307        3.6098600011
 C       -12.1453167113        6.8983196251        3.6271958775
 O       -11.6723600881        7.1225675314        4.6767496629
 C       -11.2719601980        6.9433904223        2.2024540596
 C       -10.7993869280        5.4209698019        1.9923065252
 C        -9.4012383224        5.2283014567        1.4936901291
 O        -8.9334725537        5.7692822828        0.4728732389
 C        -8.3097239232        4.1527614001        2.2713614464
 C        -8.3667458300        2.8336405756        1.2796246270
 O        -7.9825463231        2.9117535808        0.1724861870
 C        -9.0515368173        1.5133821517        1.8254763526
 C        -9.1777027204        0.6058486885        0.6271539384
 C        -7.9792473880       -0.0620601011       -0.0339752997
 O        -6.7998254179       -0.0953089721        0.2892932946
 C        -8.3801409893       -1.1148833389       -1.1064580475
 C        -8.6171859302       -0.0562874699       -2.3544952862
 O        -9.7223098258        0.4726152160       -2.5558532589
 C        -7.2910538014        0.6731533608       -2.9391753645
 C        -7.6332486096        1.4883248259       -4.1289240929
 C        -8.5638737463        2.6306206369       -3.6233778256
 O        -8.4796711183        2.9449594422       -2.3966581651
 C        -9.6216888567        3.2390063427       -4.5591760082
 C        -8.9676425012        4.4752616653       -5.3160830648
 O        -7.9124763511        4.2974537741       -5.8867595464
 C        -9.4504683579        5.9715312381       -4.9411107843
 C        -8.3729988644        7.0413144934       -4.6129886643
 C        -8.1059902509        7.2895989615       -3.1538195607
 O        -8.9199519312        7.0050023962       -2.3484956171
 C        -6.7747893981        8.2033417574       -2.6405862064
 C        -5.6071932784        7.1608696353       -1.9518128763
 O        -5.9740088704        6.0284100585       -1.6698134504
 C        -4.2253557985        7.7769045007       -1.6972024619
 C        -6.0921453143        8.8206732131       -3.8579822141
 C        -7.1438529201        9.1549774757       -1.4910140467
 C       -10.1676240895        2.1715534955       -5.5604431590
 C       -10.8882962596        3.5889164417       -3.6739611646
 C        -7.2959284372       -2.1378299273       -1.3380242527
 C        -9.6775724817       -1.8639925404       -0.8169789104
 C        -6.9789281708        4.8543682934        2.4709413511
 C        -8.9672647178        3.6620127655        3.6520474932
 C       -14.3327992733        7.0356499044        2.2934422943
 C       -14.3613105490        6.8436299901        4.8418524642
 C       -13.0552146964        0.9442504682        0.8153109295
 C       -15.3773346906        1.7228486069        1.7724947134
 H       -13.8052686151       -2.1290502010        3.5804329813
 H       -12.8746054719       -1.5428114052        2.2137523292
 H       -14.7464984458       -2.1525722133        2.1004499488
 H       -13.5560399496        1.8329945439        5.3750212181
 H       -14.9148064680        2.6465395997        4.3478086193
 H       -11.9782769958        3.6016864176        4.4833225739
 H       -13.1286014992        4.3861506398        5.6445583619
 H       -10.4300282724        7.6057990591        2.5213095316
 H       -11.8546578192        7.3217703631        1.3691460199
 H       -11.5447375106        4.9152768318        1.3909855209
 H       -11.0743771862        4.8071392972        2.8754809706
 H       -10.1601223024        1.6849956505        2.1901183708
 H        -8.3851596615        1.2354425869        2.5591271771
 H        -9.8757165160        1.1003811597       -0.1045093288
 H        -9.7241795786       -0.2905749050        0.9816601805
 H        -6.4025298729        0.0917399867       -3.1162235608
 H        -7.0801852975        1.3998767527       -2.1765914676
 H        -8.1697459128        0.9593854809       -4.8923341511
 H        -6.7848146795        2.0798772665       -4.5261335920
 H       -10.3182966738        6.0071687818       -4.1571401451
 H        -9.8950914468        6.3856339588       -5.9005844373
 H        -8.7222716456        8.0443357284       -5.0480477079
 H        -7.5129993804        6.7913699773       -5.3115335848
 H        -3.5950233160        6.9712077120       -1.2849295696
 H        -4.3281619600        8.5665474681       -0.8903941699
 H        -3.7750907552        8.0901768188       -2.5528734057
 H        -5.0341746142        8.6707350050       -3.9013038850
 H        -6.2771922390        9.8767581996       -3.9985834056
 H        -6.6464237579        8.4100348431       -4.6576789301
 H        -7.5871241028        8.7561418310       -0.5636852697
 H        -7.9222549152        9.8914115651       -1.9739772238
 H        -6.3342534033        9.8651134796       -1.2862963255
 H       -11.0520014343        2.5901699557       -5.9586946043
 H       -10.3899850646        1.2088925954       -4.9989614798
 H        -9.5045905818        2.0316223701       -6.3967725636
 H       -11.2512959265        2.7255103616       -3.1359699694
 H       -11.7493544500        4.0310076548       -4.1584983087
 H       -10.5673218071        4.2550712805       -2.8970794199
 H        -7.3773566548       -2.7847540452       -0.4738999284
 H        -6.3183519895       -1.6123941251       -1.2300981797
 H        -7.2546724145       -2.5414473611       -2.3288175590
 H        -9.7427191725       -1.9224997616        0.2493333235
 H        -9.5375648817       -2.8171328869       -1.2621182986
 H       -10.6073843528       -1.5080930745       -1.3116433308
 H        -7.0095818777        5.6501610527        3.2195599216
 H        -6.5974347473        5.3127146712        1.5631984038
 H        -6.2589895235        4.1165575173        2.8709433683
 H        -9.9879907767        3.3264700689        3.5138458256
 H        -8.6944202734        4.3800395291        4.3736912172
 H        -8.3146388286        2.9227603571        3.9313081110
 H       -14.1749611811        8.1342615937        2.0471503880
 H       -15.3775163239        6.8212622064        2.3483262273
 H       -13.8616969726        6.5891951915        1.3935845735
 H       -15.2854347535        6.3060676835        4.8462884252
 H       -14.4455704003        7.8570925759        4.9330724142
 H       -13.8669736366        6.4145234445        5.6859810883
 H       -12.1738083273        0.3909591412        0.9558966544
 H       -12.6934537740        1.9715571000        0.6225333985
 H       -13.6291240479        0.5010977456        0.0009703453
 H       -15.5097527000        1.6906570744        0.7034732679
 H       -15.4269259374        2.7781107291        1.8817619877
 H       -16.2134862879        1.3182547395        2.2674781657
 Na       -7.9946909946        4.9079494546       -1.4374267988
