117

 C       -13.8050857592       -1.3982304792        2.5428892708
 C       -14.6165688094       -0.2110265123        3.0982748958
 O       -15.3018739558       -0.1736010724        4.0794339556
 C       -14.3426626150        1.1776093252        2.1549860813
 C       -13.4401176220        2.0050823782        3.1291839479
 O       -12.2001288109        1.9415279575        3.0415584681
 C       -14.1081235955        2.6008152460        4.3501448563
 C       -13.7943495118        4.0413582546        4.6845612254
 C       -13.5449490538        5.0221307041        3.4401016631
 O       -13.3159522856        4.5663824200        2.3713210676
 C       -13.4398183118        6.6219861791        3.5023172564
 C       -11.9218559004        7.1596756621        3.3854110688
 O       -11.4066024784        7.6733883488        4.3053793598
 C       -11.1219964232        6.9758152842        2.0688085223
 C       -10.8803930680        5.5563216348        1.7173356986
 C        -9.3834206225        5.2781800000        1.3970863048
 O        -8.9681014438        5.9740236870        0.4560748261
 C        -8.3803217413        4.3258593262        2.2065209473
 C        -8.0858195407        3.1201724201        1.2647663019
 O        -7.2649428709        3.3055783040        0.3833766314
 C        -8.5622907816        1.6798442533        1.5884765051
 C        -9.2336771786        0.7568711813        0.4448746677
 C        -8.2806731800       -0.4805925992        0.1016317331
 O        -7.4009978892       -0.7000290165        0.8746036653
 C        -8.6136019071       -1.4092533080       -1.0486488677
 C        -8.7005127286       -0.4374157512       -2.2811625613
 O        -9.8427341045       -0.3652577948       -2.7584567779
 C        -7.4348802752        0.4160337511       -2.6930135131
 C        -7.5916706803        1.5206201186       -3.7591621685
 C        -8.5585050729        2.5737603036       -3.1454640028
 O        -8.5193286140        2.9736245416       -2.0033288689
 C        -9.6750019313        3.1860894293       -4.2403993525
 C        -8.8388897570        4.2399987306       -4.9624091155
 O        -7.9412623583        3.8039828495       -5.6638724624
 C        -9.2348454373        5.7832007065       -5.0853865892
 C        -7.9786443832        6.5812610333       -5.0556922648
 C        -7.7390997478        6.9520931945       -3.5247993159
 O        -8.4400906468        6.5911695737       -2.5902475642
 C        -6.7244141764        8.0359951120       -3.0575539233
 C        -5.6607835598        7.3569585076       -2.2211368096
 O        -5.6839161254        6.2682155849       -1.7606783028
 C        -4.3348852112        8.0721140989       -1.9480922699
 C        -6.0470792881        8.8319852536       -4.1889371246
 C        -7.4573286989        9.0112230977       -2.0533675142
 C       -10.1334855782        2.1922831450       -5.3187765933
 C       -10.9103767738        3.8124007011       -3.5054950985
 C        -7.5370098270       -2.6088967297       -1.0460440974
 C        -9.9612052559       -2.0215155530       -0.7250505448
 C        -7.0016753070        5.0376227118        2.4015561693
 C        -9.0639915733        3.9207632922        3.6029761691
 C       -14.2091985516        7.1898747924        2.3061590188
 C       -13.9264634365        7.1258104687        4.8346569105
 C       -13.8387654591        0.9132115818        0.6364690917
 C       -15.7282683268        1.9277688199        1.8850461438
 H       -14.2061171376       -2.2730345458        3.0502561092
 H       -12.6833860592       -1.3388279421        2.8761156623
 H       -13.8913329474       -1.4870220875        1.4902306722
 H       -13.6698766552        1.9923686574        5.2386365724
 H       -15.1721651774        2.4039211277        4.4187405122
 H       -13.0163789873        4.2780893999        5.4063891271
 H       -14.6718709250        4.4445489548        5.0617879909
 H       -10.1206142363        7.3776777040        2.3035001953
 H       -11.6490729017        7.6584212946        1.3806724687
 H       -11.5617611253        5.1797551334        0.9077802900
 H       -11.3230515967        4.8788146428        2.5327041233
 H        -9.2808150842        1.6127742951        2.4972135541
 H        -7.6625020264        1.0542339361        1.7197534556
 H        -9.5303695947        1.1898293695       -0.5070217174
 H       -10.0749501238        0.2597494704        0.9117220548
 H        -6.6264437840       -0.2708573284       -3.0765874199
 H        -6.9380702000        0.8919246269       -1.7489420910
 H        -7.9645154344        1.3085489300       -4.7321679386
 H        -6.5723977359        2.0063685795       -3.7454307280
 H        -9.8552429292        6.1509914849       -4.2744670032
 H        -9.7659466352        5.8497858181       -6.0012278389
 H        -8.0161477755        7.4601161841       -5.6227435325
 H        -7.2039094110        6.0518661203       -5.6046257438
 H        -3.9813745409        7.9078228992       -0.9199502143
 H        -4.4212270266        9.2197185747       -2.0002090755
 H        -3.6570595083        7.6247270357       -2.5874865886
 H        -5.2679743103        8.2031292197       -4.4828807924
 H        -5.6075724261        9.8312875773       -3.8457727597
 H        -6.7736544508        9.1196625426       -4.9781535277
 H        -7.8128860943        8.3536098922       -1.3670943347
 H        -8.1833305632        9.6238829325       -2.5342491324
 H        -6.8681641604        9.6828546835       -1.5046340759
 H       -10.7248248536        2.6915650390       -5.9847587081
 H       -10.6645778229        1.3712221556       -4.7982278591
 H        -9.2713148645        1.7865007510       -5.8947871459
 H       -11.6178261927        3.0728749730       -3.0902970453
 H       -11.5024523500        4.2590876023       -4.3252470241
 H       -10.7871066415        4.3863423741       -2.5924701135
 H        -7.5891234137       -3.0263499756       -0.0650429531
 H        -6.5127181154       -2.3755433171       -1.2783408329
 H        -7.8561400834       -3.2851938313       -1.8463849178
 H        -9.8662719150       -2.8452409686       -0.0954761656
 H       -10.5494006392       -2.1855154934       -1.6691182165
 H       -10.4753671785       -1.1991903796       -0.1758858027
 H        -7.0742072646        5.8524903857        3.1951689789
 H        -6.6323739629        5.5150151783        1.4886228757
 H        -6.1723946883        4.3050916096        2.5662090753
 H       -10.0292300301        3.5506864260        3.0989252775
 H        -9.2769036979        4.8558500107        4.1284931230
 H        -8.4213096592        3.3687997103        4.2241835814
 H       -14.3309069980        8.3194156744        2.3678916390
 H       -15.1934504615        6.6868318994        2.2833660969
 H       -13.8623708098        6.8837898424        1.3454829266
 H       -15.0059544666        6.8474344629        5.0712026031
 H       -13.7654738396        8.1709472656        4.6844492003
 H       -13.3023226773        6.8140234760        5.7389491442
 H       -12.9380256165        0.2757684593        0.7141316292
 H       -13.8149326211        1.9487118761        0.1456570359
 H       -14.6219321063        0.3728754417       -0.0082214435
 H       -16.4217969965        1.3712326893        1.2717510442
 H       -15.5584910340        2.7241096400        1.0985803729
 H       -16.2481483583        2.4417884209        2.7420010859
 Na       -7.6334644269        5.0123790538       -1.0050365807
