117

 C       -13.8277268244       -1.4264380664        2.6721037902
 C       -14.6079600181       -0.0880631310        2.9758111354
 O       -15.2850024467        0.0418183154        4.0148048896
 C       -14.4913707855        1.1538175422        2.0998569204
 C       -13.5651181382        2.0387387562        3.1197083869
 O       -12.3623610535        1.9474272525        2.9289165526
 C       -14.1278078510        2.7036161131        4.4424191441
 C       -13.9276854145        4.2386071313        4.6780884517
 C       -13.5388595033        5.0572084988        3.3843626089
 O       -13.4884982708        4.4801904503        2.3240209459
 C       -13.3934722721        6.6398814249        3.5206380743
 C       -11.9312163390        7.1381891315        3.3489590160
 O       -11.4012490304        7.8000380600        4.2087646308
 C       -11.1395895905        7.0455454996        1.9429072080
 C       -10.6938015712        5.5500831286        1.7151446694
 C        -9.2684408063        5.4071310125        1.3253326238
 O        -8.8568572734        5.9935450818        0.2866685450
 C        -8.5038757265        4.4751428222        2.2184294192
 C        -8.0098343940        3.0939026828        1.3005379662
 O        -7.2148869000        3.2398593620        0.4308618422
 C        -8.4915370307        1.6377976273        1.6343080858
 C        -8.9056186357        0.8818256432        0.4222392359
 C        -8.2743631210       -0.5710295923        0.2186044795
 O        -7.5093339402       -1.0427834147        1.0759747587
 C        -8.7518797734       -1.4406313997       -1.0317445857
 C        -8.7997202416       -0.5337025241       -2.3957668701
 O        -9.7978503817       -0.3719388325       -3.0696123257
 C        -7.5560624472        0.3212285500       -2.5986077999
 C        -7.7307773334        1.4660268992       -3.6122681866
 C        -8.7055457625        2.5742453302       -3.1789570668
 O        -8.5679120677        2.9819470897       -1.9687176343
 C        -9.7114168967        3.1252349400       -4.1289096186
 C        -8.8215370370        4.1375548915       -5.0161233234
 O        -7.7968717773        3.7044453519       -5.5324898035
 C        -9.1210256522        5.6096630141       -5.2705540276
 C        -7.9352530795        6.5802399881       -5.0614055036
 C        -7.7297176190        6.9866333086       -3.6483234479
 O        -8.2040282255        6.2422300185       -2.8539934121
 C        -6.6983509927        8.1183391264       -3.0879847940
 C        -5.5323771152        7.4073174372       -2.2136336490
 O        -5.6309768848        6.2539023816       -1.7580614691
 C        -4.1531329325        8.2336556768       -1.9896927939
 C        -6.0565211539        8.8770172553       -4.3977410489
 C        -7.5481930663        9.1084097297       -2.1919563838
 C       -10.2137721815        2.0937167019       -5.1158938800
 C       -10.9335779811        3.7295570538       -3.4195137576
 C        -7.6502108887       -2.7318383748       -0.8069407639
 C       -10.0656465858       -2.1532782470       -0.7345096775
 C        -7.1394532152        5.1713058764        2.5234271208
 C        -8.9228237578        4.1040055770        3.6094910929
 C       -14.1054552448        7.3504376543        2.3824337782
 C       -13.9100160312        7.1483735123        4.9398852817
 C       -13.9084276019        1.1069649398        0.7438628348
 C       -15.8989225391        1.7658336530        2.0037608670
 H       -14.1667529191       -2.3110073926        3.3890252810
 H       -12.8098743633       -1.2399428281        2.9299947298
 H       -13.8467186508       -1.6874996489        1.5448448661
 H       -13.5093856003        2.2583351121        5.2909369589
 H       -15.2126836248        2.2959248926        4.6882284404
 H       -13.2009443936        4.5347521676        5.4259821014
 H       -14.8763012915        4.7050379702        5.0197439041
 H       -10.2457093103        7.7521821048        1.9836399060
 H       -11.7645889172        7.3150694126        1.0500938707
 H       -11.4184615058        5.2548620928        0.8832163720
 H       -11.0210778670        4.8087056775        2.4598758097
 H        -9.3148486176        1.6427904718        2.4452007027
 H        -7.6941936899        0.9864995039        1.8749086140
 H        -8.6314599649        1.2925171211       -0.5594843547
 H        -9.9684586623        0.6697275270        0.4226585161
 H        -6.6939552381       -0.2805841828       -3.0518686839
 H        -7.1332408857        0.6294847527       -1.6445278921
 H        -8.1274823863        1.1495152433       -4.5939091167
 H        -6.7166236398        1.9192151171       -3.6747256986
 H       -10.0278173349        6.0162837392       -4.6573231951
 H        -9.3604076674        5.6714255744       -6.3591804095
 H        -8.0142825422        7.3392750829       -5.8892729906
 H        -6.9937375201        6.1203399524       -5.3780755312
 H        -3.7345023613        8.5226132982       -1.0010457054
 H        -4.4732049996        9.1805748034       -2.3851734925
 H        -3.3783301932        7.7612432290       -2.5750786550
 H        -5.8095351747        7.8684445506       -4.9794007506
 H        -5.1884344098        9.4276301140       -4.3161348885
 H        -6.7801024348        9.4553926121       -4.8790063934
 H        -8.1286658724        8.4651518598       -1.5627521176
 H        -8.0737513729        9.8729661763       -2.7822128434
 H        -7.0383621687        9.6129648992       -1.4620905470
 H       -10.8186785837        2.7422533181       -5.7669255525
 H       -10.8658127875        1.3839446096       -4.5822254579
 H        -9.5217440039        1.5831518037       -5.6812534935
 H       -11.6134252110        2.9954003077       -3.0231100542
 H       -11.5344371850        4.2592814967       -4.1547702978
 H       -10.7332395307        4.2210882407       -2.5011894507
 H        -7.8998513513       -3.2096505405        0.1316451130
 H        -6.6255666549       -2.3238899825       -0.7606778874
 H        -7.6555287677       -3.4052024843       -1.6243486418
 H        -9.8802152280       -3.1208486152       -0.2041424362
 H       -10.4967136944       -2.3461981709       -1.6675849635
 H       -10.7245941415       -1.4878932184       -0.1324936697
 H        -7.3150156461        6.1402363619        2.9800384115
 H        -6.5348061581        5.3310208490        1.5552302311
 H        -6.3979422220        4.5065738020        3.0619087716
 H        -9.8629691886        3.8395900633        3.4857195293
 H        -8.8130670170        5.0081608586        4.2470310203
 H        -8.2192257474        3.3462037508        3.9615746960
 H       -13.9647705459        8.4669099050        2.4008174725
 H       -15.1096826918        7.0906112422        2.2986739600
 H       -13.8345128863        6.8185852519        1.3912264969
 H       -14.9028941728        6.7258292184        5.0726261397
 H       -13.9760445993        8.1993428223        4.7877113899
 H       -13.3183441449        6.9552662492        5.8376564865
 H       -13.2555886926        0.2011295523        0.8226112478
 H       -13.5023306657        2.1355134975        0.4945055152
 H       -14.7052830239        0.9728249632       -0.0878858562
 H       -16.6064236496        1.0673424591        1.4413131154
 H       -15.9581884892        2.6020231418        1.2763638146
 H       -16.3111639539        2.1011471318        2.9405566708
 Na       -7.5055026105        5.0316432978       -0.8289012423
