117

 C       -13.9025627395       -1.3131507196        2.7860523362
 C       -14.6709935383        0.0204925209        2.9828870366
 O       -15.2984485720        0.0132476751        4.0265693425
 C       -14.6151398408        1.3556988923        2.1274784783
 C       -13.6183868249        2.1761985985        3.0927280444
 O       -12.4629571557        2.0212191261        2.8459301183
 C       -14.0731054474        2.7785117063        4.4180914075
 C       -14.0447617952        4.3076809870        4.6254511246
 C       -13.6293178453        5.0877974267        3.3180817725
 O       -13.6305723302        4.5254264932        2.2036648284
 C       -13.3734814713        6.6281236597        3.4443891109
 C       -11.8688795399        7.1960382592        3.3556186994
 O       -11.2957266732        7.9194946027        4.1996195655
 C       -11.2572721443        7.0879032556        1.9349438543
 C       -10.8294836872        5.4729609672        1.6659112262
 C        -9.3201696889        5.3790504688        1.2820799021
 O        -8.8429566025        6.0827577827        0.4397941989
 C        -8.3117628756        4.3631619284        2.2019495865
 C        -7.9137141424        3.0743287658        1.4259509656
 O        -7.1585463083        3.1556189544        0.4615988508
 C        -8.4441291623        1.7134274260        1.7855126397
 C        -8.6273405812        0.9507417815        0.4149880529
 C        -8.3876636891       -0.6324852440        0.4172235924
 O        -7.6953169042       -1.0967737160        1.2735909095
 C        -8.8721553647       -1.5333681554       -0.9039329733
 C        -8.7747006525       -0.6592752223       -2.2601039394
 O        -9.6328382787       -0.6022960285       -3.0885771440
 C        -7.4841091889        0.1211109553       -2.5337976257
 C        -7.7428609737        1.3051012535       -3.4982838320
 C        -8.8201472565        2.4787646269       -3.0320161895
 O        -8.6735893698        3.0697660816       -1.9696968596
 C        -9.7775811160        3.1356944282       -4.1386081474
 C        -8.6640134972        4.1143482749       -5.0423738990
 O        -7.6619595573        3.5571459900       -5.3700956082
 C        -9.1073043999        5.5863426485       -5.4597060587
 C        -7.8745378880        6.6201563448       -5.1605312854
 C        -7.5623522278        6.7291825671       -3.6601304866
 O        -8.0616658949        5.9165669001       -2.8734933519
 C        -6.6862047483        7.9837041773       -3.2452387334
 C        -5.4882869855        7.5316368015       -2.4049932308
 O        -5.5650437382        6.4805139027       -1.7406076569
 C        -4.2081901534        8.2872950681       -2.0916612703
 C        -6.1314542802        8.8506558223       -4.4352813174
 C        -7.4636647597        9.0778541658       -2.4628812280
 C       -10.3913965633        1.9495080019       -5.0588005583
 C       -10.8459145735        3.8166819703       -3.3251026430
 C        -7.7731843654       -2.6141056877       -1.0332819922
 C       -10.3437393279       -2.1662425131       -0.7921658116
 C        -6.9472964376        5.3940985551        2.4909637659
 C        -8.9674087708        4.0936207197        3.6027442533
 C       -14.2083912555        7.4141916753        2.4368913971
 C       -13.8561375085        7.1572965240        4.8838647640
 C       -13.8059687038        1.2074952976        0.8149904414
 C       -16.1897960585        1.7524881528        2.1575245394
 H       -14.1526477821       -1.9924167625        3.5894593789
 H       -12.8398889439       -1.0801299426        2.8217465588
 H       -14.0568248316       -1.7033522385        1.7156452873
 H       -13.6276047903        2.3569818680        5.2999567806
 H       -15.1243874061        2.4034054638        4.4825733792
 H       -13.2793526510        4.6892965651        5.3155630341
 H       -15.0437685927        4.7062181875        5.0641071833
 H       -10.3798814654        7.7614180833        1.8424049923
 H       -11.9373385359        7.3379849875        1.0849211362
 H       -11.6372948367        5.0841434290        1.0109106335
 H       -10.9432073306        4.8706239030        2.5302293717
 H        -9.3410917462        1.9018581314        2.2127236276
 H        -7.7875932375        1.0417750062        2.4095651774
 H        -7.8945165267        1.2562236689       -0.3306923301
 H        -9.6410778935        1.1401411515        0.0302738747
 H        -6.7187788905       -0.4880475899       -2.9976137596
 H        -7.0046157538        0.3745801372       -1.6419187958
 H        -8.2662594304        0.9246489335       -4.3852401752
 H        -6.8189482146        1.8062901563       -3.7352939131
 H        -9.9515106263        5.9114825195       -4.8062585778
 H        -9.4455071030        5.6149110548       -6.5769997486
 H        -8.1013318711        7.5738117736       -5.7710980135
 H        -6.9410274949        6.3385899003       -5.7130666437
 H        -4.0882370483        8.3158518891       -1.0261543142
 H        -4.2799967534        9.2857757710       -2.3518279291
 H        -3.3107412415        7.6674150200       -2.4770815439
 H        -5.9984061927        8.2255269161       -5.2946093960
 H        -5.1603857756        9.1915523541       -4.1542318095
 H        -6.7457338403        9.7162724535       -4.6937422250
 H        -8.1393897320        8.6402531388       -1.6728023844
 H        -7.8670671048        9.8690127827       -3.0612274101
 H        -6.7244446398        9.5645166948       -1.6985046493
 H       -11.2653811857        2.3692276901       -5.6557839317
 H       -10.7063573556        1.1930134522       -4.4020614128
 H        -9.6773002845        1.5041099548       -5.7485089609
 H       -11.3814993913        3.0895577080       -2.7682009885
 H       -11.5817560856        4.3383863299       -3.8492842632
 H       -10.4183554873        4.3252802526       -2.4786438360
 H        -7.7518776216       -3.3171912756       -0.1715321301
 H        -6.8354400501       -2.0515304075       -1.1154753986
 H        -7.8933745257       -3.1659966397       -1.9759050833
 H       -10.4363431940       -3.1060801469       -0.1737533584
 H       -10.5070529282       -2.4490082095       -1.8205305485
 H       -11.0019763598       -1.3945853225       -0.4999116661
 H        -7.4474482914        6.3454402020        2.5873305947
 H        -6.1378482169        5.5110277357        1.7278145957
 H        -6.3275389726        5.1317432166        3.3319436085
 H        -9.9645959158        3.6743168293        3.4634685452
 H        -9.0441179254        5.0766071363        3.9939073834
 H        -8.2345742557        3.4930783712        4.1601193241
 H       -13.7539026344        8.3875564345        2.4118720195
 H       -15.2806223357        7.5011387151        2.6486949014
 H       -14.3799272250        6.8848103714        1.4658584333
 H       -14.8129892565        6.7546789466        4.9733269594
 H       -13.9129009527        8.2600281723        4.9482371494
 H       -13.2460439444        6.7981986190        5.6399196430
 H       -13.2488215282        0.2655917024        0.9544739089
 H       -13.3123389804        2.1212303208        0.5904391485
 H       -14.5032886030        1.1194286791        0.0220462000
 H       -16.6677985851        0.9778295678        1.5226287861
 H       -16.5743576491        2.6602394218        1.7135789863
 H       -16.5812375004        1.6856237067        3.1608726273
 Na       -7.2190275857        5.0040970225       -0.9519394550
