117

 C       -13.0053546738        2.3487083455      -10.5446322322
 C       -13.2124413758        0.7960183239      -10.3085900215
 O       -14.2746887583        0.3307229485       -9.9911795889
 C       -11.8742319438        0.0009737721      -10.1213415780
 C       -11.4222711909       -0.1426435033       -8.5762124372
 O       -11.0408160932       -1.2063072480       -8.0819317494
 C       -11.1549058652        1.2137142096       -7.7785403085
 C       -10.8446643058        0.8784153371       -6.2241725814
 C       -10.2740812965        2.0227076393       -5.4958451214
 O       -10.0163946375        3.0940714048       -6.0455698558
 C       -10.1066142537        1.8299043086       -3.8734437676
 C        -9.3934320527        3.1180653924       -3.3065626122
 O        -8.2418378970        3.1233942988       -2.9412622602
 C       -10.2384272530        4.3571376909       -3.3780742327
 C        -9.4528625415        5.6139339617       -2.9508971832
 C        -9.1889889385        5.6167996057       -1.4024470766
 O        -9.2027429902        4.5699248194       -0.7940046983
 C        -8.8878553853        7.0660484423       -0.7432956951
 C        -9.9048395220        7.3642130321        0.3874820100
 O       -10.4729027642        6.4553252691        1.0039071476
 C       -10.1636537722        8.7983062160        0.8800717199
 C       -10.9181088169        8.8555221911        2.1894078137
 C       -10.2466307227        8.1142538305        3.3515670218
 O        -9.0423691119        8.3175105365        3.3861880835
 C       -10.9747373574        7.2097370759        4.4221548449
 C        -9.9328635174        6.1319650287        4.9980296073
 O        -9.3345563646        5.4728165021        4.1293625224
 C        -9.7289612357        6.0810743209        6.4655933653
 C        -9.3863378135        4.7435720159        7.1891873882
 C       -10.4912274070        3.6112803478        7.1878556879
 O       -11.6656151972        3.7854637501        6.8889494574
 C        -9.9074999231        2.2557864815        7.4627008512
 C        -8.9343968479        1.8773886821        6.2843733702
 O        -7.8615363247        2.4490421649        6.1426852908
 C        -9.3529679370        0.7919620181        5.2750008055
 C        -8.4014135262        0.6614150712        4.1331255441
 C        -8.2191712840        1.8825540079        3.1910385325
 O        -9.2089732234        2.5342232419        2.9412172421
 C        -6.8196077477        2.2040983162        2.4381462596
 C        -6.5098463093        3.6820414821        2.9056678299
 O        -7.0525564742        4.5975139063        2.3259259938
 C        -5.5538796582        4.0558972277        4.1542948294
 C        -5.6871688334        1.2758133241        2.9307581907
 C        -7.0277299822        2.1059202379        0.8766469757
 C        -9.2178753836        2.2747709016        8.8297469310
 C       -10.9586609380        1.0571814060        7.4735911049
 C       -11.6304544690        8.1108675207        5.4680353689
 C       -12.1474113411        6.3792777526        3.7967190607
 C        -7.5471891375        7.0771416220       -0.0235901583
 C        -8.7800181732        8.1880935191       -1.8132299498
 C       -11.5828283106        1.6595288116       -3.4141925162
 C        -9.2230154718        0.6496797591       -3.5090508111
 C       -12.0752866407       -1.4223556149      -10.6065818024
 C       -10.6015996291        0.4852648478      -10.8727894155
 H       -14.0733991650        2.6540505176      -10.5797502788
 H       -12.6304510569        2.4538097113      -11.5618049381
 H       -12.3707204482        2.7611838951       -9.6852617177
 H       -11.9523918689        1.9866759146       -7.8452556749
 H       -10.2535316728        1.6844994014       -8.1168749427
 H       -10.1781820379       -0.0234594422       -6.1321505062
 H       -11.7757719308        0.5051575790       -5.7976278106
 H       -11.2524263257        4.2275572837       -2.8583899989
 H       -10.5752698474        4.5170461135       -4.4253063202
 H       -10.0197830364        6.5016541290       -3.2820165539
 H        -8.4658842539        5.6709869777       -3.4880521614
 H       -10.8471934400        9.2918644868        0.1354693164
 H        -9.3678066968        9.4721580147        0.9919407854
 H       -11.9962516962        8.6215483622        2.1689835590
 H       -10.9666846122        9.9799005782        2.4071355173
 H       -10.7442435216        6.3452451423        6.8344837078
 H        -9.2206955306        6.9859158952        6.9019766783
 H        -9.1435005863        5.0326470272        8.2666544815
 H        -8.4505240800        4.3068870317        6.7735265436
 H       -10.3194437560        1.1403236155        4.9615127896
 H        -9.3886694015       -0.1356352886        5.8481683094
 H        -8.6089255274       -0.3509352428        3.6403726774
 H        -7.3931935487        0.4574092555        4.6765531053
 H        -5.7917845493        5.0077647788        4.5192849202
 H        -4.4783215844        4.1560539739        3.8405932574
 H        -5.7348362272        3.4063430196        5.0050421794
 H        -5.9767425015        0.2107632254        2.7129150436
 H        -5.5271290923        1.4692042718        4.0000956648
 H        -4.7552846369        1.5578744448        2.5375695054
 H        -7.8314662482        2.7359750318        0.5056147525
 H        -7.3677954761        1.1467311195        0.5831621468
 H        -6.0536224932        2.2557453427        0.3663541886
 H        -8.1622912312        2.4737991760        8.7952862282
 H        -9.2265592107        1.2715058728        9.3196619518
 H        -9.7548302249        2.9133324637        9.6312570837
 H       -10.5106514283        0.1185465854        7.6105056920
 H       -11.5930817933        1.0822580999        6.5843774257
 H       -11.5754738390        1.2245625283        8.3584635278
 H       -12.4035556211        8.8034082346        5.0309281410
 H       -10.8986419252        8.6222012029        6.0463733298
 H       -12.3070751598        7.4593006056        6.1013926007
 H       -11.6773744096        5.6991614623        3.0386104185
 H       -12.9188911337        7.0884068919        3.3783603053
 H       -12.6090332590        5.6713159613        4.5205371764
 H        -7.3299784407        7.9846324215        0.4279310961
 H        -6.8196167872        6.8242214009       -0.7439961160
 H        -7.6241499632        6.4188939352        0.8912650339
 H        -8.2067381245        7.8952305479       -2.6528690929
 H        -8.1908541341        9.0350013461       -1.4926059222
 H        -9.7626390075        8.5393905139       -2.0773471653
 H       -12.0083746678        0.6989911024       -3.6600141385
 H       -12.2573103382        2.4138849509       -3.7372144838
 H       -11.5297404893        1.6373083714       -2.3342881137
 H        -9.4162912468       -0.3478140837       -3.9786023739
 H        -9.3681515236        0.4453073883       -2.4259879753
 H        -8.1586306251        0.9333784280       -3.5683405063
 H       -12.9873083743       -1.9841559065      -10.3025105352
 H       -11.2778072170       -1.9614300447      -10.1698180525
 H       -12.0996094187       -1.4398391116      -11.6601410479
 H       -10.4295643642        1.5288894452      -10.9505516224
 H       -10.5165944335        0.2350227520      -11.9197509601
 H        -9.6408993494        0.1030550832      -10.5142741251
 Na       -9.0859096158        4.5883191315        1.6777897731
