117

 C       -13.8745975555       -1.1403920791        2.7509010901
 C       -14.7916723465        0.0531505675        3.1572096735
 O       -15.4635559680       -0.0094537900        4.1695210691
 C       -14.8021333873        1.5976222432        2.3549220314
 C       -13.8192065285        2.4884903452        3.0601716721
 O       -12.6275664012        2.6720617940        2.7737724749
 C       -14.3200504010        3.1010129483        4.3170683459
 C       -13.9387167960        4.5626999749        4.5543816865
 C       -13.9576049449        5.4552235039        3.2669728278
 O       -13.9491174900        4.9233970066        2.1452606132
 C       -13.5348281358        6.9147578186        3.4428753705
 C       -12.0335187973        7.0941383903        3.0358115518
 O       -11.2793270229        7.5503214231        3.9125605864
 C       -11.4673699351        6.6949095143        1.6544114237
 C       -10.7270725205        5.2503258941        1.7078919586
 C        -9.2394752745        5.2583009002        1.3901676703
 O        -8.7167048391        5.7011790369        0.3564816862
 C        -8.2033707008        4.4809139259        2.3183684669
 C        -7.7315590973        3.1610649288        1.5450626819
 O        -6.9786224402        3.2875633284        0.6456185048
 C        -8.4846926360        1.7390235738        1.7395630757
 C        -8.2563203419        0.8528526511        0.5608182981
 C        -8.5898784122       -0.6939681137        0.5944378950
 O        -8.7178459664       -1.2188536476        1.6921471098
 C        -8.9416182820       -1.5251740797       -0.6572019886
 C        -8.7596413107       -0.7702481720       -2.2619156500
 O        -9.5618685714       -0.9130795269       -3.1122748222
 C        -7.5906051757        0.1733811019       -2.4908088602
 C        -7.8086029069        1.2404022853       -3.5533631217
 C        -8.6132166435        2.4596565218       -2.9773713337
 O        -8.3956652922        2.7818975678       -1.7449723392
 C        -9.4982956372        3.2139462927       -3.9357168324
 C        -8.5298492083        3.9180961682       -4.9015419942
 O        -7.4300222798        3.5178193466       -5.1660535070
 C        -8.9188486685        5.1173529827       -5.6538259788
 C        -7.9112216760        6.3141565848       -5.4733060399
 C        -7.2581165351        6.2475802850       -4.0422374043
 O        -7.5343459502        5.3554726391       -3.2833323929
 C        -6.6169470882        7.6903318507       -3.6717697854
 C        -5.4091230161        7.6343950297       -2.5991022912
 O        -5.3042179252        6.7892851096       -1.6776486534
 C        -4.3298135116        8.6917548892       -2.6307971168
 C        -5.9877345765        8.3883066374       -4.9014217614
 C        -7.6469956660        8.4590871737       -2.8904887935
 C       -10.3180101171        2.1345510567       -4.7507404815
 C       -10.5277044538        4.2059077354       -3.1744443085
 C        -8.1536819758       -2.8588373938       -0.6541013175
 C       -10.4282845421       -1.6306692658       -0.3083888098
 C        -6.9574069144        5.3530954361        2.6856169630
 C        -8.7232080023        4.1271285164        3.7471258919
 C       -14.4609803901        7.8518253109        2.5198997995
 C       -13.7889687047        7.4695032833        4.8551377533
 C       -14.2931240385        1.0247603353        0.9318915763
 C       -16.1549036192        2.4309668279        2.3100968091
 H       -13.9016535121       -1.7129663768        3.7014362392
 H       -12.9468144318       -0.8366727236        2.3816962984
 H       -14.2481036849       -1.6523638452        1.7772070505
 H       -13.8310438058        2.5339294632        5.1686711541
 H       -15.4031888613        2.8170445443        4.6727173475
 H       -12.9925730319        4.7541729191        4.9414838762
 H       -14.6067800094        5.0168880618        5.2641583324
 H       -10.8424225653        7.3934021535        1.0600123542
 H       -12.3085145672        6.5743861664        0.9765969781
 H       -11.0403721162        4.4224431481        0.9454704118
 H       -10.8682156719        4.9305440178        2.7552682879
 H        -9.4124484645        2.3019681672        1.7126918935
 H        -8.2187427069        1.5118131298        2.7612893557
 H        -7.1481601394        0.8290618336        0.4293296664
 H        -8.6571510012        1.3606956296       -0.3087115101
 H        -6.7469721394       -0.5517381204       -2.8921639712
 H        -7.1030920991        0.4454247095       -1.5627839931
 H        -8.3805622404        0.7573177580       -4.3972679108
 H        -6.9034514108        1.7243834857       -3.9718997895
 H        -9.8585032817        5.4851492739       -5.2136443486
 H        -9.1202078250        4.7799948974       -6.6822137152
 H        -8.4942831415        7.2358684977       -5.5637216324
 H        -7.3032898438        6.5089960213       -6.2975045196
 H        -3.6525535772        8.5656007210       -1.7460405962
 H        -4.8042145156        9.6166656792       -2.5603700561
 H        -3.7041237352        8.5448191995       -3.5759626220
 H        -4.9764427043        7.9748295670       -5.1800526985
 H        -5.9481838927        9.4386879926       -4.6482874390
 H        -6.5859071815        8.1842791504       -5.7908963526
 H        -7.6415420986        8.4546011756       -1.8230046898
 H        -8.6065135686        8.3430061105       -3.2512617044
 H        -7.4130086476        9.4549066150       -3.1706425923
 H       -11.3362856048        2.5732480992       -4.9763667142
 H       -10.4285197987        1.2177319103       -4.1893082682
 H        -9.8516904462        1.8864694470       -5.6478255698
 H       -10.9568861688        3.7642139787       -2.2413078785
 H       -11.4301033754        4.5525444661       -3.7750891169
 H        -9.9977075918        5.1413569689       -2.8154156077
 H        -8.2931266314       -3.3645017375        0.2971041301
 H        -7.0941228898       -2.5869689028       -0.7591200246
 H        -8.4997363196       -3.5324889820       -1.3770348578
 H       -10.4120048811       -1.8888803901        0.8036635313
 H       -10.9028530656       -2.4383508230       -0.7634118787
 H       -10.8807753241       -0.6474993890       -0.4548577816
 H        -7.0882214167        6.3151996734        3.1346443189
 H        -6.2531586163        5.5515822762        1.7876187040
 H        -6.2676376550        4.7356440403        3.2971612835
 H        -9.6011573450        3.5635957533        3.8455991732
 H        -8.8537351531        5.1021262143        4.1764314628
 H        -7.8708098629        3.5045158146        4.0499051071
 H       -14.3220233211        8.9105741792        2.6322329786
 H       -15.4505811317        7.6372756967        2.8093335167
 H       -14.5774925726        7.3964223539        1.4919170533
 H       -14.8223825366        7.4005565952        5.2071122664
 H       -13.5079176225        8.5731040412        4.7494964914
 H       -12.9640492987        7.0280588354        5.4450685046
 H       -13.1467437800        1.2140640493        0.7874544430
 H       -14.8281664147        1.6576991697        0.1633792982
 H       -14.7329147390        0.0029970150        0.7981507504
 H       -16.9884774733        2.1328986442        1.5757535234
 H       -15.8452171745        3.4850642816        2.2747638604
 H       -16.6381097375        2.3773776167        3.2873211080
 Na       -6.8994243622        4.7454591167       -1.0750415974
