117

 C       -13.9723282498       -0.9535080188        2.8625085379
 C       -14.7932490709        0.2260202761        3.2545966226
 O       -15.5763465163        0.1055822528        4.1444366841
 C       -14.8309773213        1.5415736514        2.3859530247
 C       -13.8054238406        2.5904642799        3.0648666779
 O       -12.6809395589        2.6479454000        2.6383036362
 C       -14.2575866357        3.2135966057        4.4201297603
 C       -13.8172072162        4.6650578077        4.5932001122
 C       -13.8961770260        5.5202247788        3.2687099341
 O       -14.2160432438        4.9749554279        2.2269770813
 C       -13.5559237302        7.1265961841        3.3781272862
 C       -12.0516297655        7.0973968478        2.9692674900
 O       -11.1631852131        7.3667698256        3.7406653398
 C       -11.6035935393        6.5482967152        1.6128714948
 C       -10.6325280944        5.2047119291        1.7710057792
 C        -9.1550122928        5.2264587011        1.4278339147
 O        -8.8367419200        5.4468086948        0.2993043496
 C        -8.0318678442        4.4244025201        2.4419927778
 C        -7.7522785733        3.2025662665        1.5822041390
 O        -6.9155733503        3.1091551460        0.6755395074
 C        -8.5183162397        1.7315220583        1.8036576766
 C        -8.0335849657        0.9079053394        0.6444479056
 C        -8.6070082960       -0.5009111392        0.6994488935
 O        -8.8021602169       -1.0324800611        1.7254134225
 C        -9.0619210799       -1.3764599751       -0.6276332089
 C        -8.7423385392       -0.8084647214       -2.0383958851
 O        -9.6186308538       -0.8971825336       -2.8697624248
 C        -7.4224149493       -0.0767277035       -2.4801911097
 C        -7.7534329436        1.0542901080       -3.4068845393
 C        -8.4810261846        2.3653222203       -2.9269943785
 O        -8.3568798886        2.8472238112       -1.8061082352
 C        -9.3703635481        3.1779692270       -3.9064754741
 C        -8.4864540779        3.9071108903       -4.9598583949
 O        -7.4491366079        3.3861730033       -5.2243246468
 C        -8.9365529588        5.2410506476       -5.7702356730
 C        -7.7899050150        6.2578878637       -5.4556611502
 C        -7.2034200760        6.1767874377       -4.0905403247
 O        -7.4218637347        5.1910635460       -3.3740715400
 C        -6.5036725705        7.5898707680       -3.7925145879
 C        -5.3552039310        7.5714966404       -2.6111887334
 O        -5.3820830576        6.6990499406       -1.7721020457
 C        -4.3026579885        8.7628907808       -2.7872328610
 C        -5.9633650018        8.3630650071       -4.9506724867
 C        -7.8015836632        8.3999228191       -3.2237397503
 C       -10.3640223192        2.2974933906       -4.6543894751
 C       -10.2643763436        4.1425578023       -2.9894710297
 C        -8.3234899248       -2.8199187343       -0.3695679144
 C       -10.6177778875       -1.6872299091       -0.5123439227
 C        -6.8769470110        5.3809298938        2.6896154790
 C        -8.8081048040        4.0523825993        3.8063871962
 C       -14.4568011021        8.0125665040        2.4387271753
 C       -13.7735108684        7.6319765062        4.8428108010
 C       -14.3269570888        1.2445975778        0.8328359368
 C       -16.1960318239        2.2029099161        2.2808127215
 H       -13.9865958707       -1.5297981268        3.7839696829
 H       -12.9992823574       -0.7243848076        2.2410764245
 H       -14.5267960642       -1.3741849422        2.0175268835
 H       -13.9699604304        2.5616458981        5.3239625208
 H       -15.3247096587        3.1244650258        4.5359214260
 H       -12.7793160597        4.8170191342        4.8461126656
 H       -14.3633186340        5.2472925683        5.3877109498
 H       -11.2387354876        7.2383720846        0.8381397513
 H       -12.4980209110        6.1215782638        1.0662252232
 H       -10.7824664747        4.4497885088        0.9718543930
 H       -10.9222583003        4.8487943538        2.7565266224
 H        -9.4658088568        2.0101553484        1.8851519646
 H        -8.0593777806        1.3176127578        2.7476860668
 H        -6.9547575883        0.8658411642        0.7424664758
 H        -8.2647735492        1.3368627934       -0.3421407564
 H        -6.6978642888       -0.7359304390       -3.0051431253
 H        -6.8113754474        0.2130298163       -1.6175253503
 H        -8.4152357946        0.6839168717       -4.2434141813
 H        -6.8493273952        1.4514029726       -3.8950019623
 H        -9.9549563862        5.5984407213       -5.4806971147
 H        -8.9523686811        4.9094107185       -6.9117415562
 H        -7.9891833757        7.2704943154       -5.8912120628
 H        -6.9934138139        5.9827080096       -6.1798619101
 H        -3.4359114831        8.8741453545       -2.1797621856
 H        -5.0507522511        9.5538300762       -2.6406260854
 H        -4.0000093139        8.7868615029       -3.8670379969
 H        -5.1923891383        8.0246660362       -5.4444189664
 H        -5.8730339990        9.4057658817       -4.5927206187
 H        -6.7439688042        8.3213112356       -5.6970348412
 H        -8.0551180404        8.1959952436       -2.2129280212
 H        -8.6649724070        8.2427768595       -3.7791752749
 H        -7.6018901365        9.5003078402       -3.3112974125
 H       -11.1376578526        2.8943493708       -5.1527911917
 H       -10.8004605049        1.5753579853       -4.0466401977
 H        -9.7779964227        1.7569694096       -5.4296555508
 H       -10.7675301830        3.5233106608       -2.2222797842
 H       -11.0991794339        4.5715426872       -3.5615541127
 H        -9.8114208334        5.0467603510       -2.4807369289
 H        -8.6433048984       -3.0183458433        0.6391358542
 H        -7.2727083329       -2.8325208128       -0.4036472577
 H        -8.7990043245       -3.6109263769       -0.9358505140
 H       -10.8512241441       -2.3837205948        0.2937150939
 H       -10.9864447922       -2.1279999639       -1.4934872024
 H       -11.0568229654       -0.7249800464       -0.3336402083
 H        -7.0899099073        6.2554713504        3.4425315041
 H        -6.6474110608        5.9271365149        1.7386975274
 H        -5.8682223708        4.9936889076        2.9697488368
 H        -9.7890030664        3.5525753765        3.4624885184
 H        -9.0313355590        4.9242453602        4.2715526430
 H        -8.3450417201        3.2417427235        4.2548183267
 H       -14.2871467735        9.0168841333        2.8372216168
 H       -15.5920528303        7.8195456852        2.5903383435
 H       -14.3581052101        7.8941443858        1.3649149902
 H       -14.7794847814        7.3957631451        5.1105645261
 H       -13.6925792723        8.7406864193        4.9520442730
 H       -12.9855806220        7.1614959857        5.3797725196
 H       -13.2278409384        1.6376832437        0.7906628659
 H       -14.8949953404        2.0224614026        0.1958515210
 H       -14.5617724872        0.1760273286        0.4859775765
 H       -16.8947112962        1.7952844926        1.5513873856
 H       -16.0096515280        3.2970607139        2.2338032688
 H       -16.7532708696        2.0901928371        3.2553026081
 Na       -6.9744248288        4.8099326247       -1.0626066388
