117

 C       -13.9620982098       -0.8388316814        2.8785610397
 C       -14.9725803224        0.2949459496        3.2506625243
 O       -15.7136751072        0.3866061579        4.2194678516
 C       -14.8336888145        1.6700226695        2.3582727933
 C       -13.7596100520        2.5040648458        3.0718340914
 O       -12.6390157516        2.6934319305        2.5914902411
 C       -14.1745084480        3.3389300119        4.3528813242
 C       -13.6827652003        4.7552834838        4.5700548609
 C       -13.9953155936        5.6771373766        3.3005762702
 O       -14.4694825488        5.2029338625        2.3224306356
 C       -13.5770269665        7.1608292167        3.3600976441
 C       -11.9311907543        6.9946151598        2.8901164328
 O       -11.0822166005        7.2634317960        3.6779811037
 C       -11.6711779986        6.3227007035        1.4960528531
 C       -10.7980701308        5.1254367996        1.8855749914
 C        -9.2348999151        5.0009351698        1.3970236735
 O        -8.8029347437        5.3765298744        0.3123686683
 C        -8.2599690762        4.4402360784        2.3684746310
 C        -7.6763634479        3.1765749718        1.6429587013
 O        -6.8061347146        3.2981619009        0.8026490765
 C        -8.3855722609        1.7591277278        1.8216319259
 C        -7.9041618360        0.8408598295        0.6413535380
 C        -8.7690995951       -0.4377194052        0.7912911026
 O        -8.9115018191       -0.8856951235        1.9229163589
 C        -9.2232561983       -1.3031927051       -0.4344175366
 C        -8.7852253976       -0.7899919928       -1.8095752514
 O        -9.6258013340       -0.8275090150       -2.7530952240
 C        -7.4281687095       -0.2258431847       -2.3302058068
 C        -7.7152983451        0.9736986675       -3.3483669021
 C        -8.3747952831        2.3222259093       -2.8373686778
 O        -8.1010878065        2.7379453412       -1.7864855890
 C        -9.4117118770        3.0709320755       -3.8996798602
 C        -8.4317249756        3.7709701566       -5.0229307958
 O        -7.4478255643        3.1854489742       -5.4882489441
 C        -8.8901049864        5.0904292011       -5.6524396559
 C        -7.6838752273        6.0220907173       -5.6568452496
 C        -7.1623276936        6.2617355629       -4.2872563375
 O        -7.1251087628        5.4256650337       -3.3566540027
 C        -6.5217988040        7.6569497193       -3.8742069946
 C        -5.4933631515        7.4947186919       -2.7328974539
 O        -5.3517351796        6.7205246013       -1.8387558421
 C        -4.3911145263        8.5436142284       -2.6738811046
 C        -6.0134399480        8.3289469790       -5.1260175466
 C        -7.8303989556        8.3859618713       -3.3411171013
 C       -10.4846757394        2.3352137891       -4.6830493074
 C        -9.9992017223        4.1263359244       -2.9241258283
 C        -8.4783372573       -2.6851604361       -0.1991665178
 C       -10.6987279213       -1.6841920634       -0.6380029422
 C        -6.9334729714        5.3022402763        2.5773196524
 C        -8.7677694777        3.9654379062        3.8194247519
 C       -14.3580421029        7.9588532379        2.3161772179
 C       -13.6425830814        7.7282824676        4.7758011621
 C       -14.3452912522        1.5341704142        0.8953679293
 C       -16.3176936478        1.9492549741        2.2530863139
 H       -13.6947907175       -1.2987034902        3.8420737587
 H       -13.1825980452       -0.2844933555        2.3197569090
 H       -14.2306934183       -1.4805376482        2.0990377712
 H       -13.9949401521        2.7488343509        5.2408048318
 H       -15.2068843342        3.3682656966        4.3652909222
 H       -12.5287563729        4.8450347327        4.6518255159
 H       -14.0815270226        5.2538562721        5.4821064181
 H       -11.0811827671        6.9949930139        0.8770042446
 H       -12.5042800820        6.0966074390        0.8061142572
 H       -11.0604746970        4.1932570448        1.5553021793
 H       -10.8137104854        5.2210134067        2.9505590823
 H        -9.4517606379        2.1923203834        1.7743448258
 H        -8.1690290159        1.3072150894        2.7792131006
 H        -6.8500049101        0.6240186439        0.6787275232
 H        -8.1318926138        1.2308330156       -0.3598802955
 H        -6.9126570313       -0.9301865200       -2.8594448649
 H        -6.6876366886        0.0881178550       -1.5694631789
 H        -8.3097757683        0.6779104269       -4.1976354450
 H        -6.7377009991        1.2586701109       -3.7607319859
 H        -9.7213780217        5.5192189680       -5.0245891360
 H        -9.2836315681        4.8385155873       -6.6432366674
 H        -7.9983104841        6.9959366097       -6.0835783794
 H        -6.9841004393        5.7069301851       -6.5192518029
 H        -3.8371188731        8.2621559682       -1.7892037702
 H        -4.8463297361        9.5869263481       -2.5560324749
 H        -3.7288336522        8.4952986430       -3.4538319205
 H        -5.5244599799        7.5656626142       -5.8450890978
 H        -5.4232719040        9.1776376041       -4.9515035663
 H        -6.8241871732        8.5284945634       -5.7492305706
 H        -8.4403770142        7.7809379887       -2.6367611897
 H        -8.5383357169        8.3580429447       -4.2767244965
 H        -7.7939586991        9.4133290434       -3.0009882821
 H       -10.9032537928        2.8658083253       -5.4706650234
 H       -11.2983146474        1.9141925877       -4.0531940324
 H        -9.9095598290        1.4695315761       -5.1055489333
 H       -10.6830428705        3.6157050691       -2.2663453167
 H       -10.5764078818        4.9101262543       -3.4034266812
 H        -9.3038259893        4.7133372238       -2.3762096968
 H        -8.7063469174       -3.0268548932        0.7914759153
 H        -7.4075787085       -2.6765696890       -0.3059170097
 H        -8.9624499565       -3.3959340544       -0.8907571225
 H       -11.0430360385       -2.5591565895       -0.1832664349
 H       -10.8529937720       -1.7915243684       -1.7460128193
 H       -11.2285770268       -0.7560431359       -0.3566889672
 H        -6.9696293427        5.9418048646        3.5025417705
 H        -6.7375563232        5.9967651215        1.7833394816
 H        -5.9943431283        4.7173445207        2.6874720194
 H        -9.4596138648        3.1561094932        3.5996291694
 H        -9.2980842861        4.8132228670        4.3403886795
 H        -7.9762712222        3.4110537657        4.2519993423
 H       -14.1123394319        8.9970718738        2.6850241659
 H       -15.4847985756        7.9049826325        2.2365643057
 H       -13.9721272633        7.8194491137        1.3101737553
 H       -14.6775284483        7.5473609087        4.9670046013
 H       -13.5601312619        8.7379342325        4.8130125940
 H       -12.8902074239        7.2903177155        5.3957083670
 H       -13.3027149438        1.5546164224        0.9852593023
 H       -14.6089839851        2.4219822473        0.3086491915
 H       -14.7634772460        0.5863515282        0.4886721221
 H       -16.7133408474        1.1572604505        1.6914876527
 H       -16.6611561998        2.9425760763        1.9377999186
 H       -16.8146430427        1.7511297919        3.2270874655
 Na       -7.0441595344        4.9037053653       -1.0461156261
