117

 C       -13.9475879727       -0.2937161229        3.0841698808
 C       -14.9720345257        0.7144960441        3.4354677519
 O       -15.6084525070        0.6917853218        4.4810154008
 C       -14.9753504211        2.0698461842        2.2330658063
 C       -13.9760736003        2.8354689635        2.9758190440
 O       -12.7950883289        2.7249780405        2.5978815132
 C       -14.4006509239        3.6131312881        4.2532062040
 C       -13.7888898589        4.9959518612        4.4863023622
 C       -14.2603661412        6.1168131728        3.4368562660
 O       -15.3455871556        6.0982780194        2.9009856014
 C       -13.2738731362        7.2969378639        3.1284212379
 C       -11.8581462834        6.6202123815        2.7349187990
 O       -10.8278856626        7.0615228036        3.2817712637
 C       -11.8083634065        5.6325169647        1.5560986378
 C       -10.6977843402        4.5594668050        1.8457846521
 C        -9.3101821778        4.7578037815        1.3552570445
 O        -9.0310285269        5.1697040410        0.2464764233
 C        -8.1751117505        4.4451992517        2.4630396801
 C        -7.4786445438        3.2168154150        1.7582467223
 O        -6.8405775070        3.4466159279        0.7359926270
 C        -7.8192891836        1.7844965205        2.0909940792
 C        -7.8998895878        0.9401282045        0.8457360759
 C        -8.9877384285       -0.2822227802        1.1023020647
 O        -9.5414703576       -0.2835090312        2.2012008073
 C        -9.4394251065       -1.2482363363       -0.1995572747
 C        -9.2735844128       -0.6473121531       -1.6550784077
 O       -10.2122572816       -0.2405362959       -2.2941881656
 C        -7.8510359941       -0.5782391901       -2.2713447269
 C        -7.4640401810        0.5742166559       -3.1927575143
 C        -7.7413183976        2.0740952928       -2.8250996238
 O        -7.0846677485        2.6968549049       -2.1003279340
 C        -8.9403298284        2.8290762619       -3.7249755759
 C        -8.2093588861        3.2085560372       -5.1556850272
 O        -7.6825112530        2.2693049039       -5.7783494587
 C        -8.5510825785        4.5323537775       -5.9490938034
 C        -7.4090029558        5.5979619175       -5.9088330924
 C        -6.9540892347        6.1125351575       -4.4424359377
 O        -6.9871197977        5.2087991053       -3.6428905979
 C        -6.4315024573        7.5195579028       -4.0120150083
 C        -5.6298722344        7.4632214682       -2.7439003169
 O        -5.9637423099        6.9318756263       -1.6930941259
 C        -4.3089449537        8.2383378927       -2.7068617668
 C        -5.6671279485        8.1356001101       -5.3342754231
 C        -7.7276875696        8.2633603112       -3.7380303810
 C       -10.2051994990        1.8025040349       -3.9306166488
 C        -9.5473667377        3.9930998298       -2.8995457287
 C        -8.5954323594       -2.5578341350       -0.2056621231
 C       -10.9537024988       -1.7373346510       -0.2045969319
 C        -7.3782854505        5.7313968341        2.4134857918
 C        -8.5082358138        4.1601457947        3.9901331969
 C       -13.7436791913        8.0254551275        1.7823845562
 C       -13.3252599242        8.2981088497        4.3566727693
 C       -14.5665524088        1.4141846352        0.8058343184
 C       -16.4987460849        2.5609614820        2.1229197578
 H       -14.0666015185       -1.0468868618        3.9594719559
 H       -13.0299847267        0.2140781262        2.9805709596
 H       -14.1330414640       -0.9027234879        2.1280980855
 H       -13.9788744892        3.0674425613        5.0778721211
 H       -15.4755748359        3.5578075522        4.3319737104
 H       -12.6383560436        4.9465365348        4.4272483258
 H       -14.1215652124        5.3521467391        5.4626952783
 H       -11.4919711163        6.2375314053        0.6581677762
 H       -12.6375531126        4.9777859071        1.2111425322
 H       -11.0555070806        3.7525086148        1.2606004336
 H       -10.5729399576        4.3235774046        2.8909680147
 H        -8.8274034887        1.9579202511        2.6682633274
 H        -7.2085810353        1.4012031568        2.8306132673
 H        -7.0463203252        0.4902654181        0.3878717283
 H        -8.4881441774        1.3856726484        0.0365119790
 H        -7.5546128606       -1.4383219740       -2.8131114634
 H        -7.2646019067       -0.5246226058       -1.3095889349
 H        -7.7958191363        0.3992395849       -4.2126211169
 H        -6.3627275277        0.5810553132       -3.3588535126
 H        -9.6823102997        4.8543701061       -5.8021860518
 H        -8.4677511697        4.1218570254       -6.9736108606
 H        -7.5198279166        6.2961102423       -6.7524234975
 H        -6.4609849474        4.9799562537       -6.1585705843
 H        -3.7236265382        8.3771612233       -1.7684013600
 H        -4.5236897164        9.1748692332       -3.2634702453
 H        -3.6676111206        7.7585510961       -3.3816972687
 H        -4.5258281037        7.9224179250       -5.2841557852
 H        -5.7411840716        9.1632723850       -5.4045832752
 H        -6.0264564376        7.7994074383       -6.2573700374
 H        -8.1553501540        7.8676725941       -2.8295276316
 H        -8.4475356375        8.0441237518       -4.5558634743
 H        -7.6873772604        9.2684573608       -3.6993842209
 H       -11.0752259977        2.2280103285       -4.3024513474
 H       -10.4582823893        1.4181372404       -2.9103519159
 H       -10.0034473114        0.9478945894       -4.5508457620
 H        -9.2443841687        3.9012062827       -1.8323795647
 H       -10.6688716589        4.0615080934       -2.8888654235
 H        -9.3944585252        4.9462843855       -3.3751696242
 H        -8.8057049588       -3.0140968627        0.7371420015
 H        -7.5214846022       -2.5324757817       -0.2544594542
 H        -8.9472244551       -3.1604036269       -1.0427751620
 H       -11.2149720830       -2.2996780011        0.6793388268
 H       -11.0833267790       -2.3470208537       -1.0830252580
 H       -11.5957300421       -0.8094101025       -0.3090325734
 H        -7.9849452335        6.6298659890        2.4155672408
 H        -6.6526955440        5.8397971408        1.5393472402
 H        -6.8406769624        5.9794433021        3.3889156564
 H        -9.3048642725        3.5480788953        4.2199378019
 H        -8.3713372472        5.1139273750        4.6390939683
 H        -7.5634115406        3.6187955304        4.2240669305
 H       -12.7777272425        8.4032920178        1.3321112120
 H       -14.4563083498        8.8244188478        1.6838087590
 H       -13.7864224273        7.2209357852        1.0756824097
 H       -14.3515781864        8.6787949670        4.2239595903
 H       -12.6460377134        9.1078781738        4.3567950763
 H       -13.1687571164        7.6998137749        5.2918635693
 H       -13.8387079721        0.5166206710        0.7433842501
 H       -14.0802670675        2.3049710480        0.2196411044
 H       -15.5676203663        1.0583658291        0.3627967335
 H       -17.1530864335        1.6427411578        2.0774525811
 H       -16.5668119592        2.9198143571        1.0564216333
 H       -16.8674325804        3.2801766937        2.8773327837
 Na       -7.3343631209        4.8470223055       -1.1335324432
