117

 C       -13.0697674050        2.2516091942      -10.5784072353
 C       -13.2313705370        0.7392382956      -10.1485241212
 O       -14.2904225317        0.2044666240      -10.0661302326
 C       -11.7424973180       -0.0392620375      -10.0768984329
 C       -11.2977543486       -0.1088812989       -8.6390874355
 O       -11.0771037520       -1.1733092022       -8.1382142834
 C       -11.1085358922        1.1789253367       -7.7503943301
 C       -10.8212052794        0.7735348890       -6.3051817877
 C       -10.2782193777        1.9371764753       -5.5196804936
 O        -9.9290750022        2.9980538324       -5.9921764766
 C       -10.1978884321        1.7892754809       -3.9064874199
 C        -9.5324728188        3.1152649983       -3.3812114226
 O        -8.4147508843        3.0527336331       -2.9190417513
 C       -10.3577969201        4.3664733062       -3.4044936507
 C        -9.5497795907        5.6456996786       -2.9593965330
 C        -9.2490332298        5.7230095391       -1.4601769127
 O        -9.2383197206        4.7300972950       -0.6905082657
 C        -8.8803616363        7.1242845537       -0.8121804710
 C       -10.0489952354        7.3255454254        0.3635848969
 O       -10.4359593580        6.3731420989        1.0022107488
 C       -10.3361327308        8.8046737412        0.8749643856
 C       -11.0773654877        8.8987258659        2.2922583832
 C       -10.1614765471        8.1450617414        3.3074096766
 O        -8.9487882527        8.3224165634        3.3738890723
 C       -10.9532252270        7.2372351510        4.3601752873
 C        -9.9785756627        6.1659441789        4.9308333023
 O        -9.3451172142        5.3954949259        4.2320868554
 C        -9.8163490153        6.1777709553        6.4827641242
 C        -9.4224244329        4.8082795233        7.0583808566
 C       -10.3950252648        3.6767124503        7.0885988890
 O       -11.6129717030        3.7453542108        6.8804816453
 C        -9.7048358307        2.2525299812        7.5588385620
 C        -8.8084645419        1.9539334647        6.2852468326
 O        -7.8422712033        2.5701710466        6.0049870678
 C        -9.3242613529        0.8282345016        5.3475949185
 C        -8.2084933033        0.6759995324        4.2535403603
 C        -8.1502021501        1.9195929098        3.2566679370
 O        -9.2308905355        2.4539799506        2.9147009464
 C        -6.8660551182        2.2596833910        2.5672904965
 C        -6.6000469451        3.7440023376        2.9092932531
 O        -7.0038674021        4.7122565607        2.3374332173
 C        -5.5518586917        3.8698657102        3.9748645567
 C        -5.6316289319        1.3358851194        2.8771393378
 C        -6.9841300567        2.0756029590        1.0749723103
 C        -8.9670230210        2.5036037263        8.8966284218
 C       -10.7583554918        1.1483432164        7.7474704010
 C       -11.6718096712        8.1622214843        5.4088567027
 C       -12.2213766558        6.3982863801        3.8316841116
 C        -7.5282586319        6.9712985019       -0.0660740394
 C        -8.8363165924        8.2216579518       -1.9034600795
 C       -11.6244732367        1.5184664383       -3.3609919299
 C        -9.2747660165        0.6144280172       -3.5369865389
 C       -12.0324562410       -1.5189418440      -10.6189039878
 C       -10.5847274281        0.5230816620      -10.8571884969
 H       -14.0669281517        2.6287191682      -10.4798705379
 H       -12.8962258074        2.2126025021      -11.7225394799
 H       -12.2675214599        2.6635321436       -9.9571216989
 H       -11.9770470070        1.8247032717       -7.7677519139
 H       -10.2865827089        1.7924784003       -7.9677599556
 H       -10.2471678909       -0.1627122370       -6.2384183484
 H       -11.7386091866        0.4249311031       -5.8947457377
 H       -11.2732175739        4.1104024444       -2.9235167307
 H       -10.6930125874        4.6185181994       -4.4442565057
 H       -10.1943307001        6.5311335487       -3.1592977244
 H        -8.6529036067        5.7144509154       -3.6827956463
 H       -10.7732479575        9.4663804541        0.1065955621
 H        -9.3932692315        9.2582983621        1.0684453115
 H       -12.0333000206        8.3730664724        2.3531778388
 H       -11.3863167421        9.9351701403        2.6254977216
 H       -10.5268240376        6.7688606049        7.0525554269
 H        -8.9482059469        6.8142819501        6.6809723268
 H        -9.1394166586        4.9521642079        8.1119948789
 H        -8.5208620851        4.5171505539        6.5467778380
 H       -10.2517413468        1.2374835535        4.9216057905
 H        -9.4655047583       -0.0681455856        5.9390115086
 H        -8.5277428039       -0.2816832918        3.7244884694
 H        -7.2511049425        0.3598421071        4.7411504265
 H        -5.4482540709        4.9400790869        4.1915591355
 H        -4.5454239206        3.5234481689        3.6642603329
 H        -5.9750441472        3.4248685616        4.8440118551
 H        -5.8575558890        0.3502220167        2.4137229347
 H        -5.3695921217        1.3009600148        3.8986315933
 H        -4.8130596202        1.7531051634        2.3706876278
 H        -7.3841765072        3.0404776659        0.6160250367
 H        -7.7213212042        1.4237967431        0.7823402243
 H        -6.0782774016        1.7516230699        0.6529034265
 H        -7.8776396289        2.5377098106        8.7624845664
 H        -9.0772973801        1.6752116582        9.6540329118
 H        -9.3107959585        3.3910934753        9.4760814225
 H       -10.4527516662        0.1419278258        8.1664076604
 H       -11.3603000518        1.0521972674        6.8582112237
 H       -11.5262359271        1.5862358062        8.4005882892
 H       -12.3021682136        8.8661557291        4.8428814688
 H       -10.9989620345        8.7566376324        6.0466597734
 H       -12.4488590752        7.5980962566        5.9402942041
 H       -11.9048336347        5.6769067945        3.1641265708
 H       -12.9348387057        7.0565352822        3.3898998133
 H       -12.6359663718        5.7814148528        4.6601901922
 H        -7.3441996282        7.9749974412        0.3719005576
 H        -6.7514718555        6.6325407748       -0.7255511564
 H        -7.6302705116        6.4618419465        0.8757255917
 H        -8.1831931645        7.9982164447       -2.6902519955
 H        -8.3178313246        9.0803191980       -1.6018374091
 H        -9.8761496911        8.4674684947       -2.2718984566
 H       -12.0335059055        0.5046423003       -3.6134212896
 H       -12.3222213313        2.2385019758       -3.7547165197
 H       -11.6219171432        1.5072888131       -2.3205775723
 H        -9.6668751614       -0.1904166801       -4.0735454782
 H        -9.4643004241        0.3275198082       -2.5257076269
 H        -8.1877334345        0.7063898369       -3.5577461262
 H       -12.8457053435       -2.0286953735      -10.0980755895
 H       -11.1474482924       -2.1697316273      -10.5094976827
 H       -12.4809920538       -1.4497832061      -11.5710233129
 H       -10.3721562763        1.5435808992      -10.8477311938
 H       -10.5193303113        0.3946346208      -11.9288065735
 H        -9.6789356571        0.0418868802      -10.5723599039
 Na       -9.1846970929        4.5245944965        1.6536331699
