117

 C       -14.5207112039       -0.0043207015        3.5671369151
 C       -15.6272903949        1.0049411257        3.6186914330
 O       -16.5291854072        1.1297217614        4.4665555091
 C       -15.4874481232        2.2364479878        2.6046951896
 C       -14.4950862118        3.3482480697        3.2285326124
 O       -13.3088537429        3.0163000805        3.0867458277
 C       -14.9762076010        4.4581617458        4.1616937159
 C       -13.8863800859        5.4634193736        4.3999951951
 C       -14.0386467011        6.6065517649        3.3733142960
 O       -15.1527140996        6.9857190115        3.1803527897
 C       -12.8167693120        7.3930135986        2.5563282628
 C       -11.6771214759        6.4775047239        2.3983148237
 O       -10.7671108136        6.4249501687        3.1944773884
 C       -11.6097324373        5.5291332703        1.0905132665
 C       -10.7174117966        4.2755330241        1.3020933188
 C        -9.1924160603        4.7127232618        0.9853914095
 O        -9.0448031027        5.1832155838       -0.1423061467
 C        -7.9286847085        4.6996034417        1.9806269038
 C        -7.1642438483        3.5044460091        1.6400693212
 O        -6.3871734954        3.5468688059        0.7464383988
 C        -7.6819608501        2.1771582100        2.2542382508
 C        -7.7447594798        0.7628606309        1.4021192785
 C        -9.1699209034        0.0758124040        1.4032485408
 O       -10.2274073695        0.3800964375        1.9341996963
 C        -9.3010499888       -1.2335603323        0.3702195375
 C        -9.1311457481       -0.4982811197       -1.0404948441
 O        -9.9690229675        0.3895556614       -1.4202276660
 C        -7.7841150934       -0.5948293628       -1.7565427847
 C        -8.0220277456        0.2022806872       -3.0549943054
 C        -8.3677658360        1.6151679626       -2.8682382194
 O        -8.0485852268        2.1566522485       -1.7477025550
 C        -9.1033232827        2.5116560046       -3.9670258693
 C        -8.1333198069        2.8657249031       -5.0093824671
 O        -7.1727556788        2.1986423880       -5.3117238424
 C        -8.3201036574        4.2639964556       -5.8299436802
 C        -6.9442382917        4.8676540194       -6.1033053644
 C        -6.1753418929        5.3861855381       -4.6561747273
 O        -6.0261728915        4.7356277686       -3.6588134134
 C        -6.1541672831        6.8949691606       -4.3940069933
 C        -5.8195036246        7.0088928073       -2.8573895589
 O        -6.5586187586        6.6761984068       -1.9661332746
 C        -4.4170878070        7.5759052480       -2.2781047377
 C        -5.2986093997        7.7668016408       -5.3244422209
 C        -7.6230583147        7.4587897373       -4.6512953189
 C       -10.3658143121        1.7029154965       -4.5680032944
 C        -9.6888106326        3.7928771547       -3.2764853082
 C        -8.2900055791       -2.2962294680        0.8804534209
 C       -10.8698831690       -1.6592482218        0.5819339295
 C        -7.0714155280        5.9056596205        1.7549208506
 C        -8.2007030852        4.7683722198        3.5288055365
 C       -13.4029561980        7.7378685277        1.2452746201
 C       -12.5714555455        8.6131628358        3.5227641359
 C       -14.8335179927        1.8321724709        1.2252478473
 C       -17.0127757895        2.7517798433        2.3686822163
 H       -14.4918577651       -0.6387921685        4.4643888622
 H       -13.6216630763        0.5335720834        3.6069415200
 H       -14.6955641902       -0.6586861396        2.8158859176
 H       -15.0298936401        3.7653428162        5.0534731188
 H       -15.9045284492        4.8158101216        3.9174900592
 H       -13.0146220016        4.8932479364        4.0223928261
 H       -13.7738703216        5.8587904443        5.5035217489
 H       -11.1690133264        6.0495774331        0.2345825330
 H       -12.5702372199        5.0854680910        0.7456820634
 H       -10.9173511773        3.7040840767        0.4376952829
 H       -10.9034266377        3.7576906431        2.2249328615
 H        -8.6574199885        2.3881840992        2.7072418546
 H        -7.0501929107        2.1228870138        3.2093415415
 H        -6.9556899051        0.0249541341        1.6599331791
 H        -7.6034941697        1.1584666226        0.3957134178
 H        -7.6500721064       -1.6190035476       -1.9838127354
 H        -6.9718453659       -0.2252777911       -1.1961898209
 H        -8.8118853597       -0.1133167428       -3.7423642704
 H        -7.1478766678        0.1913141891       -3.7129355964
 H        -8.9883956140        4.9055536328       -5.3475326252
 H        -8.8448734855        4.0179961856       -6.7517538211
 H        -7.0973140775        5.9029713995       -6.5979995893
 H        -6.2690382464        4.1712863793       -6.6318591436
 H        -4.3958418968        7.5442336109       -1.2081299011
 H        -4.1626266683        8.5985269476       -2.6396996552
 H        -3.5990116986        7.0539855735       -2.6633976127
 H        -5.1810203004        7.2213009676       -6.4096142627
 H        -4.3177308268        8.0760531583       -5.0446127867
 H        -5.7934866259        8.6763994457       -5.5629345393
 H        -8.3550191770        6.6896457858       -4.2734689227
 H        -7.8323354838        7.5212484458       -5.7958156405
 H        -7.9613927840        8.3531442683       -4.1690906676
 H       -10.3671857279        0.6326034822       -4.5052004713
 H       -10.4044015215        1.8819871768       -5.6085887042
 H       -11.3004134727        2.1056999905       -4.1367361269
 H       -10.2955933613        3.4827790229       -2.4452933136
 H       -10.2424881945        4.4298630050       -3.8888752894
 H        -8.8507125015        4.2215768786       -2.7296493388
 H        -8.5467781299       -2.8906539616        1.7348694123
 H        -7.3747130447       -1.7936330748        1.0480699688
 H        -8.0278039858       -3.0689959836        0.1468339299
 H       -11.1654772439       -1.4777636562        1.5859178560
 H       -11.0872127181       -2.7567517612        0.2817964775
 H       -11.5678065723       -1.0761245013       -0.0141545412
 H        -7.7053806913        6.7663784030        2.1678297961
 H        -6.7061268848        6.2875421129        0.8386002182
 H        -6.1486119288        5.7338588163        2.3470369729
 H        -9.2262189942        5.1574822696        3.7256411893
 H        -7.5002084659        5.5449011080        4.0202408016
 H        -7.8699142701        3.8578850335        4.0726866414
 H       -12.6298153710        8.2078650818        0.6280477398
 H       -14.1060947408        8.5396192151        1.6513516567
 H       -13.9732164783        7.0605339857        0.6539164241
 H       -13.5137986626        9.0344463939        3.8397797308
 H       -12.0342400050        9.2315257722        2.8967846331
 H       -12.1679006597        8.3421633212        4.4686974242
 H       -15.5172400112        1.7898022583        0.4113189291
 H       -14.3510966850        0.8606716981        1.3507021703
 H       -14.0172121543        2.4534904581        0.8085485885
 H       -17.4185042717        1.8613002235        1.9895851659
 H       -17.0060477886        3.4934268046        1.5614096107
 H       -17.5036947210        3.2301773485        3.2859312244
 Na       -7.0139400261        4.5107419151       -1.3510109787
