117

 C       -14.8806646433        0.2570650740        3.9815048982
 C       -15.9968241061        1.2165901466        3.8543452528
 O       -17.0291772067        1.0647050626        4.5129502787
 C       -15.7950055063        2.5142935284        2.8016770204
 C       -14.6869895064        3.4206203147        3.4061802817
 O       -13.5310103462        3.1584085946        3.1600280281
 C       -14.9978491318        4.6657858120        4.1443855127
 C       -13.8603551147        5.7735237010        4.2299933543
 C       -14.1613817550        6.8892704755        3.1581170088
 O       -15.2513891693        7.3008447691        2.8788356082
 C       -12.8711757042        7.4798876507        2.4232290430
 C       -11.6716010465        6.5078182569        2.4545689042
 O       -10.9476243130        6.3829824336        3.3906544166
 C       -11.5937939144        5.4953857422        1.0769772218
 C       -10.3781971768        4.3589581615        1.0934882757
 C        -8.9702492630        4.7144379992        0.6788507085
 O        -8.6867614552        4.9773367079       -0.4751378084
 C        -7.7263814034        4.8369477714        1.7921954351
 C        -7.0425976724        3.4596376816        1.4933604230
 O        -6.3665031076        3.1642256540        0.5128544005
 C        -7.5678500689        2.3393107139        2.5216353448
 C        -7.6087925466        0.9679787573        1.7531130536
 C        -9.0084282999        0.3220973759        1.5108864795
 O       -10.0486357908        0.8841810628        1.8628231969
 C        -9.2703148375       -0.9516956208        0.8069735559
 C        -9.2173800195       -0.3817052338       -0.7042493573
 O       -10.1622780556        0.2375183585       -1.1810693178
 C        -8.0534278845       -0.6654209556       -1.7045305809
 C        -8.1279228617        0.0933071014       -2.9688684020
 C        -8.5618512681        1.6094203564       -2.7107879535
 O        -8.4642967937        2.1494039765       -1.5997561468
 C        -9.2616198834        2.4560932334       -3.9400607266
 C        -7.9589903604        2.7572506103       -4.8584608044
 O        -7.1362503802        1.8998833647       -4.8209536169
 C        -7.9140274430        4.0637453475       -5.8483460856
 C        -6.3900556385        4.5028544845       -6.0760099057
 C        -6.1010468099        5.1073073390       -4.7404759635
 O        -5.8495681455        4.4328934568       -3.8100421300
 C        -6.1169593882        6.6061348224       -4.4181019160
 C        -5.8811964002        6.7564926009       -2.7772061235
 O        -6.7810174678        6.4484510315       -2.0105660604
 C        -4.7102977351        7.4744711271       -2.2976260732
 C        -5.0497095409        7.2838301855       -5.2722045137
 C        -7.3694149815        7.4506793984       -4.6920332275
 C       -10.0810499019        1.5817057933       -4.8908457615
 C       -10.0934114942        3.7243502240       -3.4367379770
 C        -8.1221158004       -2.0223533938        1.0532011252
 C       -10.6422664619       -1.7120678604        0.9201006064
 C        -6.8051530731        5.9935863918        1.3548502699
 C        -8.1018585648        5.1237536121        3.2744510704
 C       -13.2634155821        7.7975175266        0.9509534252
 C       -12.2430332574        8.8495364967        3.0927886990
 C       -15.2487582897        1.8255236599        1.4026704212
 C       -17.1388492225        3.2468252894        2.6952754398
 H       -15.0264308278       -0.5958909823        4.7847550798
 H       -13.9714276088        0.7913238213        4.3937029955
 H       -14.8205032779       -0.2438237329        3.0327180813
 H       -15.1974922120        4.2800435476        5.1518281448
 H       -15.9356418018        5.0928775914        3.8090109851
 H       -12.8834342519        5.3233932162        4.1356558800
 H       -13.9072307665        6.2208930941        5.2567158808
 H       -11.5695855899        6.0174967482        0.0990414831
 H       -12.4280302748        4.8040977081        1.1343668268
 H       -10.8402556733        3.7076609487        0.3300899398
 H       -10.3410640493        3.8266859151        2.0643846735
 H        -8.5860968807        2.5962990368        2.6733745297
 H        -7.0443094259        2.2303292703        3.5829546944
 H        -6.7465522396        0.3728410211        2.1311819537
 H        -7.4310658944        1.2447765658        0.7477310423
 H        -8.0122515792       -1.7758432955       -2.0031217747
 H        -7.1342782203       -0.4292200663       -1.1246010024
 H        -8.7707096068       -0.3489650462       -3.7839105253
 H        -7.0915596030        0.1631596079       -3.3694812845
 H        -8.5859578607        4.8292691929       -5.4610161948
 H        -8.3304433512        3.8023746043       -6.9228299819
 H        -6.2458175007        5.1986094687       -6.9513217004
 H        -5.7442808952        3.6373574015       -6.0790594795
 H        -4.6964893474        7.2035601561       -1.2439832007
 H        -4.6181650404        8.5804394517       -2.4050020684
 H        -3.7937808640        7.0269896880       -2.7477487447
 H        -5.4351088732        7.9178460646       -6.1347389869
 H        -4.2553785761        6.6731746975       -5.6309492350
 H        -4.6370269018        8.0201159995       -4.7188183450
 H        -8.1478547527        7.3278504443       -4.0332638933
 H        -7.7802533327        7.2525028616       -5.6560558936
 H        -7.0886788595        8.4673602605       -4.6611834607
 H       -11.2072496755        1.7466228884       -4.7297108800
 H        -9.9078511084        0.5525795062       -4.7401132495
 H        -9.9390323662        1.8452374340       -5.9547488828
 H       -10.4953326775        3.4517152677       -2.4323730992
 H       -10.8850705669        3.7680229013       -4.1544506281
 H        -9.5325603671        4.6887245866       -3.2046242119
 H        -8.0453373473       -2.3028292823        2.1115492209
 H        -7.1115956767       -1.6972692686        0.7392261558
 H        -8.3064924715       -3.0100143687        0.6512884150
 H       -10.7004614579       -2.3374820113        1.8067292095
 H       -10.6570578925       -2.4126392356        0.0409403742
 H       -11.5132355166       -1.1481763556        0.8555499974
 H        -7.3474272918        6.9593338093        1.1246927184
 H        -6.1857344598        5.7578179025        0.5453502016
 H        -5.9721157597        6.1184397975        2.0131042317
 H        -7.2000789251        5.4588852859        3.8824714462
 H        -8.3954621242        4.1990828366        3.8112923426
 H        -9.0459093497        5.6076948206        3.4935636641
 H       -12.4255472899        8.2705623701        0.4950771344
 H       -14.1266938436        8.5154006077        0.8712604756
 H       -13.6242346806        6.8510716490        0.4996459859
 H       -13.1031655898        9.6049942300        3.0792234414
 H       -11.3189285901        9.1486155385        2.5464396661
 H       -12.2002312216        8.6096641858        4.1791132681
 H       -15.0435967135        0.7576737447        1.5257847619
 H       -14.3779347080        2.2716479363        0.7931770770
 H       -16.0744290639        1.9066804414        0.5835948396
 H       -17.8911319169        2.5527713467        2.3716264446
 H       -16.8803530179        3.9943154541        1.9611065338
 H       -17.5036343746        3.7649225964        3.6627565993
 Na       -7.0325011511        3.9823883162       -1.7718200186
