117

 C       -15.0190665860        1.1146430114        4.7085893589
 C       -16.3453827432        1.6498065538        4.1259881050
 O       -17.4695671208        1.4658499882        4.5970920671
 C       -16.2305030069        2.8294504299        2.9708717087
 C       -15.0091268815        3.7499883947        3.3921455983
 O       -13.9066104481        3.3746268530        3.0864133451
 C       -15.2001278018        4.9767555843        4.2978580250
 C       -13.9761929267        5.9991848672        4.0804023702
 C       -14.2082912143        6.9749179498        2.7649178724
 O       -15.3458821807        7.2585037735        2.3713025885
 C       -12.8276801422        7.5104080799        2.0835167685
 C       -11.7131030974        6.4353659614        2.2884358538
 O       -10.9511676066        6.4420705283        3.2210363255
 C       -11.3960919552        5.4965254963        1.0422049796
 C       -10.2222220936        4.5311351624        1.4897306156
 C        -8.9668419917        4.7878976636        0.7099750745
 O        -8.8603862856        4.9531674189       -0.5218875711
 C        -7.5098233927        4.8315911690        1.4112928699
 C        -7.0736990219        3.2888867455        1.4841744144
 O        -6.7650418893        2.7220656206        0.4582045596
 C        -7.2228886885        2.3127516854        2.7703924899
 C        -7.3309997794        0.8726663480        2.3431954211
 C        -8.7289924901        0.6350238158        1.7527801748
 O        -9.5109551421        1.5613245487        1.9982090673
 C        -9.0831640398       -0.7629057033        1.2140272565
 C        -9.4881741522       -0.5915091261       -0.4342079874
 O       -10.6104670040       -0.7219974164       -0.8395697704
 C        -8.3762138124       -0.5265015491       -1.4993589565
 C        -8.7890812319       -0.0994252923       -2.8274703601
 C        -8.6920240613        1.4580587798       -2.9604894159
 O        -8.0281861478        2.0663409319       -2.0885794315
 C        -9.1906013382        2.1910099728       -4.1602370067
 C        -7.8154054363        2.3909529844       -5.0889986364
 O        -6.9675627639        1.5347814024       -4.8580331749
 C        -7.5498268995        3.2838813268       -6.3360199604
 C        -6.2617773498        4.3175841660       -6.1346375298
 C        -6.0547701871        4.7500315214       -4.6584416270
 O        -6.2297070281        3.9564019519       -3.7937854393
 C        -5.7213058244        6.2668095396       -4.3133098530
 C        -5.7679048408        6.8633233850       -2.8136832934
 O        -6.6246583630        6.4238791407       -2.0434906618
 C        -4.6358618398        7.7945935203       -2.3134332130
 C        -4.5336789257        6.7618196263       -5.0536028883
 C        -6.9499532816        7.2681069905       -4.7816736992
 C       -10.1960583485        1.3758368283       -5.0797368871
 C        -9.8804846506        3.5405462891       -3.9132556792
 C        -8.0068658035       -1.8237241163        1.2736594325
 C       -10.4465209066       -1.2483700113        1.7433524189
 C        -6.4906492812        5.8006517640        0.7366983741
 C        -7.6727571850        5.2613189639        2.8589282905
 C       -13.1275964917        7.8598400341        0.5979047899
 C       -12.3034135983        8.7630515818        2.8771516234
 C       -15.9179324083        2.2788833446        1.6017384439
 C       -17.5593814637        3.5313613913        2.9589726226
 H       -14.5144680261        1.8532962920        5.4588205900
 H       -14.3162257028        1.0091072664        3.8465771460
 H       -15.0953459129        0.0479403593        5.1092390891
 H       -15.3574853980        4.5352840601        5.3412684819
 H       -16.1797299874        5.3961432422        4.1873065344
 H       -13.0903027124        5.4920993534        3.9611914973
 H       -13.7774257981        6.6132741332        4.9414159558
 H       -11.1590017793        6.0206150116        0.1142517953
 H       -12.3302211431        4.9941455258        0.9083054300
 H       -10.3468689362        3.5049401191        0.9954012836
 H       -10.3100303313        4.3780194346        2.6059653872
 H        -8.1018599178        2.5556329144        3.2851579102
 H        -6.2492037601        2.4579093616        3.3757995454
 H        -7.4314594032        0.2086965511        3.2682005522
 H        -6.4914271088        0.6025985935        1.7157606304
 H        -7.8713654018       -1.5692846242       -1.5311625572
 H        -7.5890281067        0.1827117797       -1.1121532432
 H        -9.8070107895       -0.3552266874       -3.1977641517
 H        -7.9232446968       -0.5155251712       -3.3600519837
 H        -8.4355592898        3.8349882330       -6.6176136057
 H        -7.2722064445        2.4594509591       -7.1111186638
 H        -6.2061452224        5.1834073435       -6.8396245809
 H        -5.4358174268        3.7607539764       -6.3952069363
 H        -4.4718906776        7.4522100248       -1.2756828548
 H        -4.6579866078        8.9370401047       -2.3180901233
 H        -3.7375105819        7.4955028318       -2.7509836358
 H        -4.3397390348        6.1887669077       -6.0530256957
 H        -3.7048995297        6.6657808195       -4.4386878362
 H        -4.6376709221        7.7865187372       -5.3341468960
 H        -7.8897204607        6.6955634309       -4.7507694413
 H        -6.8976486574        7.6630582139       -5.8662461776
 H        -7.0810172547        8.1146139911       -4.2238881939
 H       -10.9826456541        0.8389177194       -4.5469073254
 H        -9.6212273955        0.7328443915       -5.7333864338
 H       -10.7143798206        2.0586765266       -5.8272433634
 H       -10.4230788662        3.6137735755       -2.9705524250
 H       -10.4598573580        3.7684984876       -4.7429871098
 H        -9.0706586692        4.2950509214       -4.0633143186
 H        -7.5743088127       -2.0717062467        2.2433682613
 H        -7.1233130677       -1.5431344462        0.6920366481
 H        -8.2985690793       -2.7476337607        0.7753046270
 H       -10.5641007439       -1.5646790472        2.7484874549
 H       -10.6193459900       -2.2264544829        1.1594212969
 H       -11.2516184351       -0.6395233912        1.4383150208
 H        -5.9780721070        6.3359248977        1.5516492246
 H        -6.8431556993        6.5199735424        0.0356122855
 H        -5.7082192029        5.3604507390        0.1921890923
 H        -8.6501056031        5.5015980125        3.2197120199
 H        -7.1653440829        6.2652164181        3.1832148094
 H        -7.1665830349        4.7680522503        3.5906670904
 H       -12.2979830744        8.4647234119        0.4277414594
 H       -13.9052677635        8.6525448374        0.5233323880
 H       -13.3202166014        7.0404378978       -0.0291318237
 H       -13.1339159505        9.4833402425        3.0809781072
 H       -11.5773561544        9.2925250777        2.3040782737
 H       -11.6683130451        8.3086841530        3.6484082951
 H       -15.5586937621        3.1051579312        1.0249381536
 H       -16.5303753210        1.6382082363        1.0409608098
 H       -15.1337564348        1.6222364027        1.8436309635
 H       -18.2769498500        2.8051071820        2.9117637184
 H       -17.5967281037        4.0570811670        2.0471690796
 H       -17.7891749657        4.0817746894        3.8629150196
 Na       -7.1543284739        4.0384494318       -1.6359243533
