117

 C       -15.1222581218        1.3848313254        4.7659217600
 C       -16.4730125033        1.8800814097        4.2746800836
 O       -17.4702813531        1.4057998996        4.6838546757
 C       -16.2653336717        3.0252946257        3.0224586067
 C       -15.0426036215        3.8561940019        3.4381733942
 O       -13.9547815477        3.4569668628        3.0321974678
 C       -15.2258993025        5.0802596456        4.2189146592
 C       -14.1418217029        6.0670902893        3.9731513881
 C       -14.2454006336        6.9568298037        2.7196612949
 O       -15.3131740934        7.1526349882        2.1922482245
 C       -12.7976101487        7.5303044762        2.1676016473
 C       -11.6429797496        6.4896712272        2.2513427665
 O       -10.8498893246        6.4469446510        3.2279403910
 C       -11.4095545014        5.4106302209        1.0994463217
 C       -10.1935251411        4.4291070522        1.3473111230
 C        -8.8485886837        4.8397281788        0.7459537129
 O        -8.8551688365        4.9093931867       -0.4837796138
 C        -7.4702944513        4.7841344526        1.5899985380
 C        -7.1264327358        3.1968592307        1.4468172189
 O        -6.7471884875        2.7479419408        0.4097390278
 C        -7.0400617930        2.3047768627        2.7589448847
 C        -7.2831658864        0.8357927634        2.5696012392
 C        -8.6708325860        0.6454976548        1.8315578570
 O        -9.4349382228        1.5508786978        1.7703253865
 C        -9.0378364161       -0.8389457243        1.1251922153
 C        -9.4816537534       -0.7790175214       -0.3937534999
 O       -10.6828870225       -0.8966521906       -0.5302920629
 C        -8.3732601660       -0.6158017717       -1.4383522202
 C        -8.9733948122       -0.0014660529       -2.7592003623
 C        -8.7118555825        1.5297149970       -2.9691161448
 O        -7.8952879311        1.9825788667       -2.1306161888
 C        -9.0880081713        2.2595301109       -4.3975182821
 C        -7.7095435404        2.2114378623       -5.1856023423
 O        -7.0071602053        1.2447811141       -4.9595145221
 C        -7.3669450553        3.2730665635       -6.3024478530
 C        -6.1137048379        4.0519711388       -6.1114177141
 C        -6.1752957223        4.7960986717       -4.7073393918
 O        -6.5517818018        3.9831145148       -3.8374835345
 C        -5.6731386730        6.3602708800       -4.3999385772
 C        -5.5797466543        6.6845138783       -2.8245222049
 O        -6.5458183520        6.4257381553       -2.0995695492
 C        -4.6615768917        7.8069943421       -2.3471449351
 C        -4.3635544582        6.6698025424       -5.1542085777
 C        -6.8629589611        7.2994776643       -4.9615709004
 C       -10.0642821691        1.2952808196       -5.1847275700
 C        -9.8472169502        3.6564904799       -4.0680302343
 C        -8.0137640484       -1.8325110825        1.4860882668
 C       -10.4526871407       -1.0121045513        1.9693608124
 C        -6.4693372522        5.6281697556        0.7724153417
 C        -7.6336302452        5.4010012821        3.0720187370
 C       -13.1900143953        7.8609871951        0.6955475525
 C       -12.4249883688        8.8991066817        2.7676594524
 C       -16.0599969162        2.2643357286        1.7196137115
 C       -17.7465906143        3.7579142443        2.9331472019
 H       -14.4474312430        2.1329871507        5.0603702764
 H       -14.6748174759        0.8020538968        3.8850048692
 H       -15.2386672732        0.5467022675        5.5803635052
 H       -15.2242855945        4.7436659573        5.2714496793
 H       -16.1738701965        5.4505459159        4.1963225901
 H       -13.1280459455        5.6292223978        4.0580668440
 H       -14.1260979542        6.7612761905        4.8575347468
 H       -11.2697545598        5.8790049249        0.1116451171
 H       -12.4304990057        4.9515071785        1.0726192685
 H       -10.3583236506        3.4326828829        0.9414604198
 H       -10.1748542492        4.3237412767        2.4613653649
 H        -7.8109124227        2.7388535700        3.5293221475
 H        -5.9999544417        2.4575366361        3.0466894031
 H        -7.3625812311        0.2557008085        3.4730293817
 H        -6.4350544445        0.5339008367        1.9648404574
 H        -7.8679532830       -1.5978111534       -1.5466255409
 H        -7.6372333589        0.0369991755       -0.8774060482
 H       -10.0914638803       -0.0242861845       -2.7199988426
 H        -8.4673495692       -0.5788824022       -3.5764109250
 H        -8.1455761293        4.1040674338       -6.3742993283
 H        -7.3922974410        2.5893966476       -7.1574407261
 H        -5.9277226754        4.8202098977       -6.8994757546
 H        -5.2054363513        3.3769909154       -6.1981494247
 H        -4.9654729542        7.9658725926       -1.2820751773
 H        -5.1843968094        8.6587381349       -2.8638295484
 H        -3.5750217866        7.9163845505       -2.3491410984
 H        -4.4179227009        6.5232625557       -6.1272576089
 H        -3.6456516968        6.0139983950       -4.6863530585
 H        -4.0484942237        7.7098193786       -4.9247124197
 H        -7.7732352715        6.7940061735       -4.7696129591
 H        -6.8391566550        7.5075580995       -5.9819579946
 H        -6.9367361172        8.2604065010       -4.5058524867
 H       -10.6144209776        0.6524321010       -4.5784508836
 H        -9.4450630087        0.7384794465       -5.9509793455
 H       -10.7908098155        1.8487359861       -5.8314991419
 H       -10.2982579868        3.3510725163       -3.1114330694
 H       -10.6134053711        4.0787075502       -4.7712278210
 H        -9.1294608756        4.4682266176       -4.0069660506
 H        -7.6984831182       -1.7506708503        2.5265127919
 H        -7.0796908452       -1.6667391883        0.9708234542
 H        -8.2045386879       -2.8845912420        1.1859849298
 H       -10.3502749927       -0.8459888523        3.0127290733
 H       -10.8914304691       -1.9831597354        1.9261424131
 H       -11.2496521167       -0.3393189018        1.5581179104
 H        -5.4865924943        5.5622029214        1.1430045060
 H        -6.6835501537        6.7129140957        0.5494142681
 H        -6.3552264588        5.2059006631       -0.2400376341
 H        -8.4656601736        6.0450357273        3.3359485347
 H        -6.8294554676        6.0972207044        3.4005460631
 H        -7.4198297619        4.7251710876        3.9349070408
 H       -12.2214092960        8.2314490234        0.2932939919
 H       -13.7935757008        8.7572638364        0.6366218894
 H       -13.6161429855        7.0287402958        0.2130556176
 H       -13.2953128496        9.5268301879        2.5070682840
 H       -11.5711032742        9.3495919836        2.1782694212
 H       -11.8945706821        8.8550553188        3.7526219138
 H       -16.5924782674        2.8423658980        0.8661724894
 H       -16.3761646207        1.1664813540        1.7578994480
 H       -14.9864052605        2.1094209602        1.4886754925
 H       -18.5859325632        3.0689366385        3.1400071565
 H       -17.9029147171        4.0761345470        1.8804163304
 H       -17.8293257818        4.5162713293        3.6702133080
 Na       -7.2788723344        4.0176196139       -1.7114121694
