117

 C       -15.3335131205        1.8458605477        5.1438880274
 C       -16.6778456580        2.2339558674        4.4838854841
 O       -17.7369064906        1.8431026391        4.8652234513
 C       -16.5949604196        3.2926583478        3.3151512448
 C       -15.2105026732        4.2556248846        3.2668050199
 O       -14.2057624781        4.0791603037        2.5969434965
 C       -15.4220594015        5.4835717146        4.1278277108
 C       -14.1739951759        6.2788206132        3.9864256099
 C       -14.1846573560        6.7634170186        2.4817275530
 O       -15.1743323637        6.7256989439        1.7618118112
 C       -12.8598162065        7.4838593932        1.9526673916
 C       -11.5733014007        6.6256940218        2.2028620595
 O       -10.7857807512        6.7739884039        3.1471876891
 C       -11.4195235424        5.4332835544        1.2622102986
 C       -10.1202898307        4.5064118483        1.8090183011
 C        -8.9493994376        4.9702418468        1.0165845979
 O        -9.0616785768        5.1553238433       -0.2091629357
 C        -7.6192676103        4.7358542065        1.8195232505
 C        -7.0190437925        3.2051823309        1.5243944143
 O        -6.7680226724        2.8222338555        0.4119747465
 C        -6.8986060685        2.2247588111        2.7029885728
 C        -7.1088134050        0.8256211403        2.3760707481
 C        -8.4598012643        0.7145089880        1.6269635124
 O        -8.9110776607        1.6490913690        1.0013739945
 C        -9.1239654758       -0.6694001981        1.5384439205
 C        -9.7034342141       -0.8998019726        0.0624533299
 O       -10.8203927546       -1.3706767505       -0.0438154634
 C        -8.8601241349       -0.4712081308       -1.0525478243
 C        -9.4124963454        0.0044255401       -2.3795421696
 C        -8.6419170052        1.1975027409       -3.1290127627
 O        -7.9723382405        1.9048487844       -2.3045981389
 C        -8.9538850765        1.8105747709       -4.5233278528
 C        -7.4536049062        1.8336353611       -5.5258028456
 O        -6.6911800140        0.9010400271       -5.5374900250
 C        -7.1638605368        3.1105745509       -6.4084538386
 C        -5.8395844039        3.7792944033       -5.8656980723
 C        -6.2403617615        4.7505235168       -4.7542357205
 O        -7.0988682641        4.4433285545       -3.9226891216
 C        -5.5204576632        6.2311236278       -4.7294934406
 C        -5.4143048876        6.7120322427       -3.1697228669
 O        -6.0420185271        6.1352908688       -2.2710873187
 C        -4.5928204051        8.0177485744       -2.8687158769
 C        -4.0899796495        6.1262140197       -5.2488932083
 C        -6.3693733164        7.0699601304       -5.6234411302
 C        -9.8875539253        1.0006966213       -5.4248995515
 C        -9.6935519331        3.1907505052       -4.2909985219
 C        -8.0660394016       -1.8306036687        1.7150467824
 C       -10.2273456880       -0.8735221717        2.5320952418
 C        -6.5225844982        5.6495045478        1.2451516181
 C        -7.7261948248        5.0443466029        3.2977742012
 C       -12.8949577360        7.8043874689        0.4338646435
 C       -12.5458522290        8.8756084609        2.7103565108
 C       -16.4130598952        2.2862096291        2.0281107339
 C       -17.9708017408        4.0169904645        3.2021928002
 H       -14.4864782728        2.4094223088        4.8717737835
 H       -15.3125776905        0.7825554661        4.8355713679
 H       -15.3393861167        1.6210440434        6.2855000316
 H       -15.6253067939        5.0280733178        5.2136779810
 H       -16.3340388597        5.9763105435        3.9643872002
 H       -13.3673924669        5.6941925165        4.2250789611
 H       -14.0104151588        7.1344353576        4.5952037835
 H       -11.1823933812        5.7257535141        0.2518601811
 H       -12.3484268872        4.8867751532        1.1527094825
 H       -10.5261677975        3.5312248649        1.4671053821
 H        -9.9999597396        4.3573376406        2.9172662587
 H        -7.6673927267        2.4238728215        3.4626725226
 H        -5.9224091761        2.2449537581        3.2020623416
 H        -7.1425681550        0.3575522726        3.4162447024
 H        -6.2999340040        0.3153473967        1.8564156226
 H        -8.0415631021       -1.2336119286       -1.0484920886
 H        -8.3413470092        0.3406088224       -0.5464649728
 H       -10.3237998225        0.4717974940       -2.0330814143
 H        -9.4814740483       -0.8322650107       -3.0246925933
 H        -7.9327077610        3.8577640403       -6.4441901178
 H        -6.9511865811        2.6857927387       -7.4460519511
 H        -5.1643253335        4.2056650983       -6.5991445199
 H        -5.2852892653        3.0032196448       -5.5073634676
 H        -5.0795542383        8.8160841854       -2.3179344546
 H        -4.1470937425        8.4399009121       -3.7960031565
 H        -3.8181209801        7.7466211452       -2.2468477499
 H        -4.0473790391        6.7989526198       -6.0297867389
 H        -3.8876950348        5.1477829857       -5.7501954461
 H        -3.3376492705        6.3211309780       -4.3954523143
 H        -7.2506696221        7.4352729583       -4.9742810792
 H        -6.8648273464        6.4074470485       -6.4214605499
 H        -6.0573337095        7.9308689710       -6.2184609606
 H       -10.8184897218        1.4445506318       -5.3815256949
 H       -10.0644014390       -0.0214244139       -5.0712898153
 H        -9.5909552172        0.9390573124       -6.5135076793
 H       -10.7059566069        3.1377459343       -4.6334646939
 H        -9.2552525396        3.9436222566       -4.8798244012
 H        -9.5005702633        3.5451754185       -3.3026285797
 H        -7.5858341021       -1.7854792924        2.6703868059
 H        -7.2277058928       -1.8456960131        1.0674404674
 H        -8.4672721939       -2.8268018436        1.5618734296
 H        -9.9685340793       -0.9046274229        3.5602265927
 H       -10.9266906460       -1.7265693784        2.3423814350
 H       -10.8740435541        0.0172849280        2.4138853302
 H        -5.6121098755        5.1728524822        1.0156245773
 H        -6.3956500604        6.5577129351        1.8384931093
 H        -6.7810978075        6.0010784764        0.2379232898
 H        -7.4666384677        6.0022651983        3.5783624371
 H        -7.0414784508        4.6323422768        4.1110613039
 H        -8.6670961213        4.7686792705        3.7136594164
 H       -11.9759660684        8.3180946906        0.0876231078
 H       -13.8357689384        8.4517659845        0.3941725453
 H       -13.0651118702        6.9246868252       -0.1161600422
 H       -13.3755713238        9.4923869710        2.4356230995
 H       -11.7001411657        9.3635165747        2.4180150393
 H       -12.3477482520        8.7049279323        3.7310599802
 H       -17.2941415612        1.7481729394        1.7543881825
 H       -15.6241924118        1.6172330855        2.0610000080
 H       -16.1686726539        2.9399823047        1.2995487246
 H       -18.6356947624        3.2702194439        2.8646181285
 H       -17.9337966127        4.7255187489        2.3689694538
 H       -18.2990558863        4.4521338481        4.1622010493
 Na       -7.3902423967        4.0661154494       -1.3593730919
