117

 C       -15.4973578326        2.0749369792        5.4089905153
 C       -16.7251578153        2.5776642905        4.6771538214
 O       -17.8198745877        2.3079859066        5.1826936599
 C       -16.7906958179        3.3167889271        3.3644070681
 C       -15.4964568962        4.3164886622        3.2500433581
 O       -14.6149428457        4.1913430452        2.4071289169
 C       -15.3807046005        5.5946281736        4.3020038097
 C       -14.3465550466        6.6775645843        3.7979414286
 C       -14.1160985766        6.8441135431        2.2009004128
 O       -14.9234321407        6.6121538916        1.3345023614
 C       -12.8312939967        7.7248800968        1.8451841993
 C       -11.6096668282        6.6972314836        2.1015805809
 O       -10.8856944119        6.9474410156        3.0078109333
 C       -11.5111955808        5.2067931486        1.4919485871
 C       -10.4110834098        4.3364053757        1.9424464232
 C        -8.9998444883        4.8822905362        1.3596195141
 O        -8.9484098303        5.1261966835        0.1600024728
 C        -7.4892190572        4.7926225801        2.0388599467
 C        -6.9049479215        3.3879620133        1.6795145069
 O        -6.3741076936        3.1578027884        0.5568822539
 C        -6.8820165011        2.2787629808        2.7328061384
 C        -6.9471030610        0.7739705486        2.1382361256
 C        -8.3912222123        0.6070391329        1.6439982817
 O        -8.9224876375        1.6365361770        1.1463089374
 C        -9.0753979324       -0.7057873965        1.5317421687
 C        -9.8607034595       -0.9577026895        0.0389230434
 O       -10.9367242473       -1.4811077050        0.0898165100
 C        -9.0572333480       -0.3585917705       -1.1236054363
 C        -9.6306817194        0.0278454857       -2.5473302426
 C        -8.6691057523        1.1577356505       -3.0585594709
 O        -7.8882651709        1.8029273517       -2.4712211539
 C        -9.0383672010        1.4438118167       -4.6926922973
 C        -7.5372621458        1.6090139359       -5.3706867636
 O        -6.8536076969        0.6123662782       -5.2735080490
 C        -7.2235855340        2.7519548501       -6.3204465579
 C        -6.0530221703        3.7147301069       -5.9109587554
 C        -6.2473954867        4.7517069358       -4.7787382455
 O        -7.0676490404        4.4810199589       -3.9152373584
 C        -5.3042029688        5.9611744915       -4.7300607580
 C        -5.1452967757        6.6791429324       -3.3277669251
 O        -5.5698946591        6.2066309763       -2.2878622301
 C        -4.6288096022        8.0739079938       -3.4847827739
 C        -3.7882668312        5.6704270938       -5.1615606494
 C        -6.0702332640        6.9717641534       -5.7929087477
 C        -9.6458194243        0.2040351980       -5.4400061964
 C        -9.7788191895        2.7991105717       -4.6364550792
 C        -8.1623968506       -2.0025586558        1.6502690891
 C       -10.0787171823       -0.6502219531        2.6847203847
 C        -6.6745661022        5.9229277196        1.4217255020
 C        -7.4879947555        4.8997405799        3.6109208413
 C       -12.9030958736        7.9674615544        0.3665699481
 C       -12.6823923228        9.0168765924        2.7242972379
 C       -16.6667346539        2.3753702549        1.9856902542
 C       -18.0248633676        4.2528463163        3.2503623036
 H       -14.5755671170        2.6595971450        5.0200443703
 H       -15.3878911032        1.0648818876        5.7297183265
 H       -15.5925830034        2.5524975403        6.3646397916
 H       -15.2038161835        5.3447936368        5.2619274237
 H       -16.4231206913        6.0582139506        4.2788103313
 H       -13.3303973177        6.4477969984        4.2840661376
 H       -14.5425620301        7.7054869825        4.1830429838
 H       -11.6830371795        5.3423573211        0.4080725526
 H       -12.4044841290        4.6100839659        1.7871983271
 H       -10.5754280978        3.4523566962        1.3177318726
 H       -10.5759767374        3.9722032003        2.9466554348
 H        -7.7810294608        2.2827701658        3.3315134725
 H        -6.0647256633        2.5218822815        3.4884153443
 H        -6.5707281237        0.0617334331        2.8254577050
 H        -6.4556269048        0.4813932147        1.1687939368
 H        -8.1867696254       -1.0546213613       -1.1898274112
 H        -8.5078556035        0.4768251677       -0.6278889134
 H       -10.6507963798        0.4774657477       -2.5121279836
 H        -9.4536878205       -0.8579673295       -3.2181917628
 H        -8.0494552124        3.4733147888       -6.2315994387
 H        -6.9689437492        2.5932265217       -7.3568132843
 H        -5.7346758174        4.1199521110       -6.8812567479
 H        -5.0616273258        3.1679401538       -5.6110877719
 H        -5.5738199114        8.6754098414       -3.5330693686
 H        -4.2030030313        8.3066992117       -4.4568902989
 H        -3.9504941608        8.5523369589       -2.7046290114
 H        -3.2598095296        6.6738848755       -5.3383684801
 H        -3.7257564691        5.1280791256       -6.0484938974
 H        -3.4569430066        5.1140752318       -4.4054183772
 H        -7.0653962813        7.1745996946       -5.6258781499
 H        -5.8761873367        6.7215641282       -6.8079292548
 H        -5.6213502859        7.9254747877       -5.7316592818
 H       -10.4309338308        0.4757772353       -6.2621554381
 H       -10.1131927424       -0.6447282428       -4.9415197194
 H        -8.8034188634       -0.1020567863       -5.9968488158
 H       -10.4406441465        2.8999773741       -5.4986692998
 H        -9.0627794599        3.6097777022       -4.8454151564
 H       -10.2273481986        3.0509463643       -3.6540420490
 H        -7.6400537160       -2.2039174577        2.6080360847
 H        -7.3401028748       -2.0818760404        0.8953082562
 H        -8.7469850596       -2.9031092095        1.5047357379
 H        -9.4803754762       -0.6293960555        3.6404720544
 H       -10.7156381172       -1.5135674520        2.7936225677
 H       -10.6704771247        0.2217225607        2.7349355797
 H        -5.5501990668        5.7582558796        1.6343702889
 H        -7.0428422761        6.8370889392        1.8580877718
 H        -6.6438353300        5.9601885701        0.3458870191
 H        -7.9801222839        5.8079096888        4.0483639829
 H        -6.5420575955        5.2936837930        3.9754857183
 H        -7.6484220724        4.0601033514        4.2065595151
 H       -11.9294797191        8.2293503868        0.0136788425
 H       -13.7527007115        8.5517340165        0.1303464899
 H       -13.0796223632        6.9766526876       -0.1486772275
 H       -13.6911696855        9.5426922356        2.7465129952
 H       -11.9236242034        9.7466639935        2.2490249029
 H       -12.2600678097        8.7445558838        3.7656849034
 H       -16.5583753604        1.3368464909        2.3374586582
 H       -15.7223262311        2.6241762215        1.4136566593
 H       -17.5683906683        2.5663159880        1.3091851513
 H       -18.9214496027        3.6613676820        3.0790803687
 H       -17.8695448342        4.9089372074        2.4411590907
 H       -18.1430404461        4.8281669870        4.1652271375
 Na       -7.2785330095        4.2138603932       -1.5745218468
