117

 C       -15.6420521915        2.7192327010        5.3923857438
 C       -16.9976005353        3.3503490803        5.0132417362
 O       -17.8933397868        3.3794403164        5.8005419695
 C       -17.1247267158        3.7137535734        3.3331741264
 C       -15.7674867807        4.5388667615        3.1503676375
 O       -14.6825809218        4.0579006083        2.8058645471
 C       -15.7622553666        5.9783650413        3.6772585913
 C       -14.3738990379        6.6693714477        3.5091916406
 C       -14.0701903512        6.9812142782        2.0246178419
 O       -14.8101475663        6.7326006833        1.0971929539
 C       -12.7467782169        7.7689587234        1.6382292989
 C       -11.5790137907        6.8988875793        2.1742108818
 O       -10.7337228440        7.2307735419        2.9415695107
 C       -11.5049277401        5.4772513068        1.5297284789
 C       -10.3579128914        4.6158052672        2.1285021572
 C        -8.9051303529        4.6166413315        1.3175723870
 O        -8.8767019350        4.5300111290        0.0797174320
 C        -7.4533356300        4.8552244038        2.2041842253
 C        -6.6868084244        3.6160490326        1.6861260332
 O        -6.3408434364        3.4596377050        0.4777104720
 C        -6.4954794418        2.2879501629        2.5633266074
 C        -6.8718809635        1.0743761162        1.7843979601
 C        -8.3794437931        0.8644660389        1.7391385540
 O        -9.1939805372        1.7991399323        1.9459316855
 C        -8.9605005683       -0.6059622107        1.4648643462
 C        -9.6774332608       -0.6968215550        0.0756858077
 O       -10.8940595758       -0.8493548188        0.0618256458
 C        -8.7717640520       -0.5607392575       -1.1261015273
 C        -9.6666446171       -0.0256955185       -2.2946853875
 C        -8.9654292180        1.0115891787       -3.1540540860
 O        -8.4807142994        2.0352062953       -2.8106782543
 C        -9.2179437888        0.9485641755       -4.7571613195
 C        -7.7018979607        1.4642954483       -5.2528335204
 O        -6.7607874454        0.9485132000       -4.7038061402
 C        -7.3813925841        2.6232824576       -6.2118458017
 C        -6.0146678749        3.0950092494       -5.8368211766
 C        -6.1699323215        4.2535874327       -4.8441493432
 O        -7.0585074929        4.4305655377       -4.0115468397
 C        -5.1040852355        5.4581530904       -5.0053056780
 C        -5.1867045191        6.1993342263       -3.6122801023
 O        -5.4136231956        5.7025364843       -2.4863122432
 C        -4.8480111059        7.7184014310       -3.6309824789
 C        -3.6533013053        4.9390475513       -4.8915245705
 C        -5.2433644508        6.4071106305       -6.1881887068
 C        -9.1739023835       -0.4813164920       -5.3516853296
 C       -10.3745571714        1.7878258402       -5.1156873444
 C        -7.8733761926       -1.6608469746        1.8049639524
 C       -10.1561513316       -0.9485182925        2.3388448628
 C        -6.8740695948        6.2112315502        1.8680370383
 C        -7.4734680050        4.7077528578        3.7440626555
 C       -12.5801144603        7.7985416608        0.0635643833
 C       -12.6948481080        9.0849443810        2.3931242050
 C       -17.1104577588        2.3360731047        2.4462345580
 C       -18.3682799907        4.4318582393        3.0969515055
 H       -14.9613589327        2.3395598637        4.6339342190
 H       -15.6588999185        2.2280688054        6.3851760163
 H       -15.0713012228        3.7339447637        5.6338541786
 H       -15.9491937748        5.9322391520        4.6691941870
 H       -16.5124499818        6.6033373315        3.1249903930
 H       -13.6936228149        5.8422543266        3.7318359646
 H       -14.3037341567        7.4347069562        4.2413896800
 H       -11.3235753233        5.2631895722        0.4778185739
 H       -12.5407226907        5.1375387288        1.6200555826
 H       -10.7173042922        3.5628728421        2.1815583051
 H       -10.1477729585        4.8808934207        3.1729212980
 H        -7.0393988264        2.2369933514        3.4941901676
 H        -5.4044016577        2.1452846034        2.9717470720
 H        -6.5171952707        0.1857941136        2.2505060017
 H        -6.1606988322        1.0680241120        0.9329390663
 H        -8.1057928529       -1.4934854541       -1.1732945598
 H        -8.0286197886        0.2829300868       -0.8216700112
 H       -10.4562271468        0.6364869075       -1.8503385664
 H       -10.1867951512       -0.7891666720       -2.9482231867
 H        -7.9889995667        3.5135219308       -6.1417417141
 H        -7.5142192301        2.2815880519       -7.2877392292
 H        -5.3873114025        3.4931172570       -6.6497214578
 H        -5.4737003585        2.1817143730       -5.4697012616
 H        -5.1009900848        8.3142299968       -4.5321446519
 H        -3.7352777083        7.8049488467       -3.7242369462
 H        -5.0830212371        8.1662661735       -2.7354939727
 H        -2.9951038151        5.8047448062       -4.7199450379
 H        -3.4808862122        4.5530081850       -5.8322355084
 H        -3.5903049452        4.1967368470       -4.1166381904
 H        -5.9853178094        7.1638241542       -5.9235552720
 H        -5.5766801981        5.9056132907       -7.1684889813
 H        -4.3521983284        6.9092572342       -6.3455913711
 H        -8.1395070054       -0.9782255837       -5.2908437935
 H        -9.6449209182       -0.5290462233       -6.3252361507
 H        -9.7922201099       -1.1946499392       -4.7858936315
 H       -10.6167149562        1.8227100742       -6.1689573668
 H       -10.1640239601        2.7774250631       -4.8483625132
 H       -11.3264921863        1.4312883504       -4.6542923109
 H        -7.5287968105       -1.7228588483        2.8091045962
 H        -7.0449568131       -1.5641350003        1.1077600955
 H        -8.2299600529       -2.6346730781        1.7072086760
 H        -9.9362330660       -1.0458463612        3.4125759468
 H       -10.5148735986       -1.9289355209        1.9556723036
 H       -10.9027877871       -0.2575561223        2.4041106346
 H        -5.9965871159        6.4440194580        2.5871670133
 H        -7.5751369627        6.9404493909        2.1734158280
 H        -6.5800893970        6.3143433323        0.8490476364
 H        -7.9380141837        5.3999795906        4.5073814423
 H        -6.3412789862        4.6348117709        4.0799194257
 H        -7.9041670943        3.8145113845        4.0052401549
 H       -11.5871622223        8.0453069886       -0.0726672006
 H       -13.3134673734        8.4289576307       -0.4710955025
 H       -12.6435221401        6.8305175914       -0.4487540803
 H       -13.5008938816        9.7927695065        2.1210334079
 H       -11.7443493862        9.5102987817        2.3292993680
 H       -13.1181274903        8.8836902732        3.3459036656
 H       -16.3835128013        2.4727109496        1.6851776304
 H       -17.9935416427        2.2324013357        1.9144453180
 H       -16.8772631372        1.5468416800        3.0503619029
 H       -19.1960227807        3.9747948863        3.5538784777
 H       -18.3982150719        4.4266492564        2.0602149360
 H       -18.4128209150        5.4936820104        3.3315621047
 Na       -6.9711551051        4.4779243474       -1.3038174301
