117

 C       -13.1944325815        2.1463729120      -10.6044430887
 C       -13.1061803403        0.5726905688      -10.2051698156
 O       -14.1248413479       -0.0452103675      -10.0344850052
 C       -11.6662930618       -0.1739088719      -10.1462240756
 C       -11.2588070054       -0.2669938062       -8.6310141042
 O       -11.0731436239       -1.3433756427       -8.1010912068
 C       -11.1225386615        1.0081774719       -7.8233456882
 C       -10.7964998154        0.6465685533       -6.3391490833
 C       -10.2891647677        1.8644554582       -5.4950665202
 O        -9.7605491720        2.8665625982       -6.0095727328
 C       -10.4044163248        1.7153813370       -3.9316838486
 C        -9.7122478694        3.0054912050       -3.2492381140
 O        -8.5956041712        3.0839466171       -2.8121709385
 C       -10.5627403585        4.2978623655       -3.2969127275
 C        -9.8328939693        5.5775117267       -2.9361008134
 C        -9.4450136354        5.6630678182       -1.4294718930
 O        -9.4292193874        4.7166450316       -0.7109065275
 C        -8.9846787050        7.1830396859       -0.8311734465
 C       -10.0155397339        7.4287952893        0.3842696537
 O       -10.4547940111        6.4956082305        1.0694543042
 C       -10.4394026188        8.8495350232        0.7256440450
 C       -11.1765303128        8.8100873966        2.0262434893
 C       -10.3065271910        8.0343694607        3.1701442561
 O        -9.1187595675        8.2443309863        3.3406660330
 C       -11.1025977762        7.2350568269        4.2673232684
 C       -10.1582818086        6.1848973749        4.9810470713
 O        -9.6317966600        5.3564574567        4.2249026649
 C        -9.9475570838        6.2529691448        6.4631103480
 C        -9.2568097172        5.0069919323        7.0328831441
 C       -10.1392069072        3.7281106252        7.1773559860
 O       -11.2598604474        3.8085165840        6.7697299739
 C        -9.4683969539        2.4856715139        7.6242787545
 C        -8.7549696578        2.0466719219        6.3347285734
 O        -7.6867587256        2.6754055071        6.0952494374
 C        -9.1630082198        0.8823935400        5.4376070680
 C        -8.0896015506        0.6961311075        4.2897898312
 C        -8.0983576397        1.8231213043        3.3766523430
 O        -9.1106957305        2.3597195052        2.9665562967
 C        -6.7858627280        2.2359592183        2.4499616534
 C        -6.3486497851        3.6429071176        2.9402538725
 O        -6.9607761059        4.6232722896        2.4857648336
 C        -5.3685801646        4.0981546565        4.0232064515
 C        -5.6670756095        1.2715583652        2.8502810279
 C        -7.1418156760        2.2444680605        0.9425342685
 C        -8.2983133772        2.8028032656        8.6834552063
 C       -10.4711316688        1.6064334962        8.2752241963
 C       -11.4792643986        8.3700489491        5.2466303375
 C       -12.2107746124        6.3598419845        3.6208378448
 C        -7.5600279377        7.0085520593       -0.2482366621
 C        -9.0861176858        8.3939278251       -1.7219209247
 C       -11.7746467178        1.4317330489       -3.2787684465
 C        -9.4204033239        0.4860685532       -3.6287097445
 C       -11.9211480951       -1.5690151152      -10.6481641396
 C       -10.6437713256        0.6623588289      -11.0290719253
 H       -14.1365424045        2.5363556444      -10.2732366193
 H       -13.2344254364        2.1124840008      -11.6104904144
 H       -12.2789221771        2.5562879388      -10.2712590078
 H       -12.0360657011        1.6241277018       -7.9194424003
 H       -10.2459067578        1.6656794021       -8.0710997396
 H       -10.1240281604       -0.1920692357       -6.3063422384
 H       -11.6696436979        0.0705976749       -5.9587771571
 H       -11.3672881331        4.0317545270       -2.5493229507
 H       -11.0603357654        4.4336962245       -4.2187314250
 H       -10.4044142844        6.4650230383       -3.2598710266
 H        -8.9066920256        5.5236369151       -3.4672662283
 H       -11.0550186747        9.3811949184       -0.0135913711
 H        -9.5187539792        9.5005537346        0.7786201803
 H       -12.1829618701        8.4561102639        1.8483961471
 H       -11.2934256654        9.7678011112        2.4734350806
 H       -10.9553938943        6.3463752917        6.8526788396
 H        -9.5454041600        7.1856427611        6.8401742970
 H        -8.7662673041        5.2213706127        7.9694103546
 H        -8.4041938730        4.8129135417        6.3693726588
 H       -10.1580326294        1.1115171282        5.0458489009
 H        -9.1074935549       -0.0234005016        6.0812413779
 H        -8.4598566718       -0.1437743166        3.8079251405
 H        -7.1189393090        0.4410239492        4.6169665338
 H        -5.2440617084        5.1204514047        3.7236854298
 H        -4.3718770163        3.6294500166        3.9016037352
 H        -5.8223694393        4.0777352674        5.0573223075
 H        -5.9822168737        0.2523435453        2.6497467662
 H        -5.5412769731        1.5464342954        3.9281715635
 H        -4.7214350787        1.3701875847        2.2686702930
 H        -7.1093529889        3.2085184194        0.5151787449
 H        -8.1817265593        1.8857973963        0.7215314375
 H        -6.4563396402        1.5779356614        0.3318329715
 H        -7.4640916915        3.4128637861        8.3871836383
 H        -7.8712187409        1.9326803832        9.0936119775
 H        -8.7665160989        3.3680181759        9.4903379932
 H        -9.9305014710        0.7133682253        8.5602520930
 H       -11.3136417446        1.3460493704        7.5488999696
 H       -11.0755790182        2.0818534317        9.0783708562
 H       -12.0847039204        9.1382545871        4.7710073274
 H       -10.6026778796        8.9074793118        5.4761557491
 H       -12.0106643290        8.0075100336        6.1215637500
 H       -11.8908102039        5.7861528247        2.7255122115
 H       -12.9614375164        7.0259982508        3.2141673546
 H       -12.5212068186        5.6440924393        4.3166095358
 H        -7.3117330901        7.9083414670        0.2843190084
 H        -6.9138978264        6.7838654571       -1.1293911810
 H        -7.4538649146        6.1870652646        0.5579960018
 H        -8.2604330818        8.6308401842       -2.4373351378
 H        -8.8053459862        9.2455228775       -1.0442075691
 H       -10.0160419106        8.4922473059       -2.2398500633
 H       -12.0127692625        0.4493629145       -3.6355447161
 H       -12.5862752324        2.0664976756       -3.6746330664
 H       -11.8104065850        1.2884854765       -2.1545117819
 H        -9.9493784974       -0.4081947852       -4.0214598000
 H        -9.0370947941        0.3641170745       -2.6166403361
 H        -8.4999582762        0.6642741540       -4.1129762205
 H       -12.4812272158       -2.2315119215       -9.9634695090
 H       -10.9629871022       -1.9869794968      -10.9124720096
 H       -12.6945577104       -1.5724201656      -11.4430063065
 H       -10.2529001771        1.5945743482      -10.6077105701
 H       -11.0336634577        1.1764347655      -11.8943247373
 H        -9.7826335702        0.1970562563      -11.5248633853
 Na       -9.4353430890        4.4189486203        1.8632927493
