117

 C       -15.8310643134        2.9053475378        5.6468418300
 C       -17.0510390483        3.5172070134        5.0679965638
 O       -17.8918691444        4.1396087619        5.7456363465
 C       -17.2016511985        3.8094363878        3.4589046858
 C       -15.9524644411        4.6349283588        3.1687548056
 O       -14.9774328314        3.9465995626        2.9722743921
 C       -15.9352747305        6.1168596465        3.3161881723
 C       -14.4181907331        6.7030646828        3.2874799201
 C       -13.9852442564        7.1418709453        1.8559089755
 O       -14.7555529739        6.8842958131        0.9619006592
 C       -12.6787248510        7.8104977617        1.4433078272
 C       -11.3948176478        6.8937091516        2.0660488542
 O       -10.6273329849        7.2596226145        2.9498199439
 C       -11.2005249081        5.5411714121        1.4691860736
 C       -10.2671106807        4.5708790840        2.1744343859
 C        -8.9827555246        4.5302023854        1.4585442136
 O        -8.9037371156        4.6314970182        0.2621530267
 C        -7.5023481591        4.6374492151        2.2363307893
 C        -6.5516649014        3.5502666621        1.5954444598
 O        -6.1390697412        3.6442922490        0.4669253145
 C        -6.2864880682        2.2960834164        2.3942259706
 C        -6.9215322861        0.9719954281        1.7659285899
 C        -8.4414807223        0.8197463031        1.9856981737
 O        -9.1463660343        1.7047455734        2.3602006256
 C        -8.9430011030       -0.5427542917        1.7863958140
 C        -9.5721760779       -0.4281878011        0.1529875252
 O       -10.7548329887       -0.5388902548        0.0342516200
 C        -8.7663995212       -0.3538085565       -1.2274291691
 C        -9.7219041316       -0.0435992781       -2.3142698720
 C        -9.1660188252        1.1006255656       -3.2682867150
 O        -8.8372960546        2.1389890881       -2.6641199575
 C        -9.0806359411        0.8666905152       -4.7668281038
 C        -7.6633449188        1.3928491383       -5.1723410456
 O        -6.7531725986        0.8606975313       -4.5592337249
 C        -7.5228657632        2.4245946915       -6.3090475729
 C        -6.1935110710        3.2150368230       -6.1792385358
 C        -6.1357980658        4.1590340525       -4.8860683855
 O        -7.0094638032        4.1072099923       -4.0540871034
 C        -4.8981907086        5.1819260954       -4.7742378286
 C        -5.1022407119        6.1777456657       -3.5471445501
 O        -5.4088365880        5.6673942206       -2.5026815278
 C        -4.8124198647        7.6828908736       -3.5496385588
 C        -3.5366633528        4.3811782788       -4.7134510508
 C        -5.0064951451        5.9792747029       -6.1468031673
 C        -8.9230251793       -0.6862574557       -5.0263624082
 C       -10.3575335781        1.3114986619       -5.5351696576
 C        -7.7828894986       -1.6191209751        1.6155182158
 C       -10.0040779243       -0.9607956331        2.8421863078
 C        -7.0018922387        6.0998762313        1.5960872265
 C        -7.7117387237        4.6427688629        3.8016339596
 C       -12.5535969946        7.9493858982       -0.0803570804
 C       -12.6340373514        9.1945634393        2.0462761122
 C       -16.9896513712        2.4360011327        2.7287403445
 C       -18.5537164862        4.4924391719        3.2077757280
 H       -15.9855172541        1.8639024290        5.2190558606
 H       -15.8884475219        2.7775311695        6.6918219739
 H       -14.9235237930        3.2045260368        5.4023740549
 H       -16.2972899125        6.3459654300        4.3956845340
 H       -16.4132648860        6.7015306005        2.5682724861
 H       -13.7154504979        5.9793444622        3.7752832600
 H       -14.5135868314        7.6817030393        3.8878519957
 H       -10.8142108687        5.7858015936        0.4525727365
 H       -12.1339321533        4.9891378786        1.2269898768
 H       -10.8267576498        3.6640004119        2.2641526193
 H       -10.1341979279        4.8445077350        3.2238270498
 H        -6.7132948105        2.2665888364        3.4458290494
 H        -5.2798195319        2.2303243427        2.5487049341
 H        -6.2982785489        0.1176539474        2.0836654227
 H        -6.7567031589        0.8184007406        0.7193396308
 H        -8.2844086067       -1.2957413261       -1.3325798801
 H        -8.0152732809        0.3869097291       -1.1768498529
 H       -10.6662736738        0.3761474336       -1.8644671014
 H       -10.0941930495       -0.9045350284       -2.8493041369
 H        -8.2643080184        3.2830456455       -6.2038726050
 H        -7.8735232391        1.9391604047       -7.1793259143
 H        -5.9415986224        3.8985310517       -6.9965317508
 H        -5.3622056889        2.4745374993       -6.1755879455
 H        -5.5077736647        8.1515008138       -4.2428901421
 H        -3.8804928181        8.0604199784       -3.9395104188
 H        -4.9924381503        8.1579593771       -2.4798223411
 H        -2.7975560464        5.1099583919       -5.2024728367
 H        -3.6904694800        3.3957879852       -5.2172207462
 H        -3.2174801951        4.3177034350       -3.7021448447
 H        -5.9846295204        6.2503012083       -6.4538883026
 H        -4.5949481369        5.3692910695       -6.8908197167
 H        -4.2805980621        6.8019284078       -6.0842320065
 H        -8.5913210182       -1.2237211147       -4.1710270852
 H        -8.1537819301       -0.7970233166       -5.8106906442
 H        -9.7676831040       -1.2067479855       -5.4572657910
 H       -10.7668319732        0.5194372806       -6.1886399457
 H       -10.2515813605        2.2855793443       -6.1316439724
 H       -11.2328100312        1.3612676558       -4.9313986705
 H        -7.1557210969       -1.7347600885        2.5222607602
 H        -7.1424030532       -1.5289285920        0.7350670127
 H        -8.2311116514       -2.6679498137        1.5692905059
 H        -9.7877804526       -0.7627696447        3.8806188604
 H       -10.3517595633       -1.9379146025        2.7010731587
 H       -10.8672508116       -0.2176737830        2.7116754764
 H        -5.9514769301        6.1482231315        1.7455647087
 H        -7.3818525613        7.0612000286        2.0362967955
 H        -7.2150979448        5.9247042315        0.5129679798
 H        -8.1431807221        5.6218061192        4.0820680629
 H        -6.9024671626        4.3475250710        4.4057981167
 H        -8.5954843182        4.0191925760        4.2152004052
 H       -11.5583247132        8.3995580402       -0.5149181491
 H       -13.3744324820        8.6251469601       -0.2894909822
 H       -12.8156038957        7.0193156277       -0.6023125575
 H       -13.5613827734        9.7331656293        1.9303579077
 H       -11.7909586990        9.7110951239        1.4591362623
 H       -12.6884881663        9.2670816501        3.1440904044
 H       -17.4966815615        2.5215480055        1.7370011215
 H       -17.7245312865        1.7501176020        3.2894377217
 H       -15.8822770438        2.0211514766        2.6844485961
 H       -19.3498710309        3.7331438227        3.4415863462
 H       -18.6653524021        4.9827826563        2.2313775571
 H       -18.8044929518        5.2163873141        3.9336329781
 Na       -7.2182282110        4.4812839305       -1.5892317737
