117

 C       -16.9437774951        3.3068756830        6.1893107535
 C       -17.1353564928        4.5223005057        5.3267967596
 O       -17.3920114811        5.6010252131        5.7501415742
 C       -17.1414422263        4.1828240457        3.7949984634
 C       -15.7904948933        4.9166831923        3.2120134164
 O       -14.7907618848        4.2177231011        3.0198721781
 C       -15.8896866335        6.3991671471        2.9128679076
 C       -14.5248236961        7.1073639936        2.7287991381
 C       -14.1519473641        7.1912100514        1.2249035014
 O       -14.8255950805        6.8864722063        0.2367149781
 C       -12.6902645251        7.8336672922        1.1242417016
 C       -11.6074586082        6.8760873832        1.8651034912
 O       -10.9495507141        7.3755263038        2.7329860898
 C       -11.5624968229        5.4187029979        1.3157344041
 C       -10.3709195931        4.6522013069        1.9929311071
 C        -8.9529775049        4.6752460870        1.1241988844
 O        -9.0454543222        4.6645154244       -0.1555158522
 C        -7.5584499364        4.5160976001        1.8804317706
 C        -6.6996482268        3.4703083460        1.1890839137
 O        -6.5885533073        3.3516225211       -0.0162815840
 C        -5.8590941871        2.3935089069        1.8960395579
 C        -6.6351270226        1.0585526654        1.6822044046
 C        -7.9816183455        0.7712352184        2.3195328549
 O        -8.5845031090        1.5000343368        3.1145235530
 C        -8.8403844350       -0.5172339967        1.7067752429
 C        -9.7773056690        0.0331822662        0.6713577958
 O       -10.9717487539       -0.0850012029        0.7961270807
 C        -9.1080498872        0.7642573149       -0.6125992063
 C        -9.8184050603        0.4171076861       -1.8494051779
 C        -9.1547589491        1.0663226581       -3.0728584584
 O        -9.0607027370        2.2302262259       -3.1285921266
 C        -8.7693440166        0.3957172593       -4.4502750607
 C        -7.6328418919        1.2828795755       -5.0275447945
 O        -6.5041140837        1.0048913188       -4.6788371955
 C        -7.8213847803        2.4056373975       -6.0773227254
 C        -6.5603576716        3.3025948695       -6.2913473859
 C        -6.1684782619        3.8305123499       -4.8932663073
 O        -6.9598912493        3.6683668738       -4.0152776549
 C        -4.8354980475        4.6393149787       -4.5203998662
 C        -5.1781365073        5.6877722735       -3.4034366527
 O        -6.0007481681        5.5636820671       -2.5219472526
 C        -4.5542950860        7.1048097580       -3.4741290523
 C        -3.7641660733        3.7134762060       -3.9140145315
 C        -4.1221117916        5.2361038219       -5.7576095693
 C        -8.1865284793       -1.0554403588       -4.1076786355
 C        -9.9180238702        0.3376614648       -5.4127148077
 C        -7.8748850863       -1.5807855255        1.0763615047
 C        -9.6185858334       -1.0215835044        2.9601632984
 C        -6.8973826200        5.8242894700        1.2720409349
 C        -7.6266550973        4.4209387422        3.4505329658
 C       -12.3813453865        8.1618894122       -0.4427547660
 C       -12.6448638127        9.1673775584        1.9724178339
 C       -17.0063508803        2.7279297661        3.1220386653
 C       -18.5722397609        4.7468453834        3.3650543384
 H       -17.7594584240        3.0325043530        6.6912070254
 H       -16.2548998034        3.5473085290        7.0148612452
 H       -16.4966690408        2.4161527984        5.6414510758
 H       -16.5689542587        6.9566146311        3.5280106538
 H       -16.2587355819        6.3738614579        1.7702375794
 H       -13.7537544420        6.3567080375        3.1205747505
 H       -14.4733697510        8.0916194816        3.2134695662
 H       -11.2860542659        5.3699819904        0.2507499803
 H       -12.5902781824        5.0356588852        1.4060689580
 H       -10.3998275520        3.6068208349        2.2469782694
 H       -10.2199091827        5.1161991137        2.9625662737
 H        -5.7840722665        2.6006369775        2.8925958497
 H        -4.9501844868        2.1969728645        1.3109184119
 H        -6.0515730886        0.2357781486        2.0220879158
 H        -6.5656328080        1.0300359233        0.5651123523
 H        -8.0955797337        0.5242934094       -0.7952928589
 H        -9.2108891515        1.8143222825       -0.4324363943
 H       -10.8302893932        0.7282971091       -1.8241584387
 H       -10.0949100876       -0.6345697539       -2.0571499406
 H        -8.7634175389        2.9819977786       -6.0430991141
 H        -7.9727733650        1.9802187810       -7.0743133550
 H        -6.8534605723        3.9658683262       -7.0420650857
 H        -5.6689344055        2.7463949710       -6.6248691254
 H        -4.3538960077        7.4341384085       -4.5451344439
 H        -3.5839513706        7.2906309207       -2.9275233627
 H        -5.2510332499        7.7687298047       -3.0813134979
 H        -3.1693090013        4.3368123615       -3.2564866534
 H        -3.1939467799        3.3126326358       -4.7759106357
 H        -4.2035982567        2.8667770982       -3.2135273468
 H        -4.5501778856        6.2014070670       -6.0492852265
 H        -4.3496463785        4.5332108827       -6.5548279215
 H        -3.0751888648        5.3414588534       -5.7215831305
 H        -7.4316087788       -1.2021550532       -3.2924905853
 H        -7.6687375714       -1.3881306773       -4.9789403172
 H        -9.0715202317       -1.6400243104       -3.9542956401
 H        -9.9575366481        1.1332863770       -6.1726198777
 H       -10.8939133009        0.3149302822       -4.9537594199
 H       -10.0089047489       -0.5583443044       -6.1048293874
 H        -7.1109369397       -1.7898687702        1.8438849594
 H        -7.3445786479       -1.2143939620        0.1565720146
 H        -8.4028394659       -2.4413105832        0.7312316280
 H        -9.0307395421       -1.8817270342        3.3659700360
 H       -10.5511616838       -1.5292554223        2.6391051839
 H        -9.9518630009       -0.3297364572        3.6468570914
 H        -5.8732227795        5.9288426237        1.7993038157
 H        -7.5506953616        6.6227171181        1.5256437964
 H        -6.8802328945        5.8320209964        0.1953649915
 H        -8.3349783939        5.1906943863        3.8169558210
 H        -6.5747245398        4.5045874563        3.9589705478
 H        -8.0037717951        3.4857253792        3.7668925461
 H       -11.4098980555        8.4430327814       -0.7003274835
 H       -12.8050810760        9.1171757042       -0.8131608376
 H       -12.8859844394        7.3388505581       -1.0065196387
 H       -13.1503065290       10.1464349241        1.6768113274
 H       -11.5992454612        9.4853485605        2.1487172405
 H       -12.8968793535        8.9756417205        3.0857454060
 H       -16.8564021801        1.8752801512        3.9082388351
 H       -16.0387487569        2.7226861938        2.5617081987
 H       -17.9382915624        2.4760193472        2.5675701743
 H       -19.3549494933        4.0155359398        3.5113212765
 H       -18.7019938515        4.8545234328        2.3108198740
 H       -18.7469078120        5.7461351057        3.8414156460
 Na       -7.5716592900        3.6453365256       -1.8621586455
