117

 C       -17.1969186301        3.8155648280        6.5366238265
 C       -17.1403776143        4.6877534891        5.2853382274
 O       -16.8244564203        5.8608471427        5.4715098826
 C       -17.3083749028        4.2452192470        3.7158685565
 C       -15.9773699681        5.0277654311        3.0672214392
 O       -14.8782238018        4.5734309391        3.2874760668
 C       -16.1070260140        6.5558071775        2.6814680801
 C       -14.6653913635        7.1897814422        2.6920479734
 C       -14.0476398964        7.2632456227        1.2400603512
 O       -14.6115139223        6.8917096861        0.2492130716
 C       -12.6046781268        7.9466174984        1.0259928285
 C       -11.5578068833        6.9463274982        1.6860393441
 O       -10.9414227070        7.2168705863        2.6839956574
 C       -11.4291535125        5.3710188899        1.0365532359
 C       -10.2933351426        4.7972243671        1.8985810673
 C        -9.1413030620        4.6731943772        0.9192265484
 O        -9.2809594931        4.5895189473       -0.2398872342
 C        -7.6171429506        4.4885507347        1.5690741107
 C        -6.8617899916        3.1604082399        1.0709515363
 O        -6.5863399481        2.8403843086       -0.1067972173
 C        -6.0361163887        2.3575798730        2.0603732735
 C        -6.3903863599        0.8454235547        2.0223090782
 C        -7.8912601733        0.7874707593        2.3858632709
 O        -8.2230178027        1.6263860896        3.1470738157
 C        -8.7876036392       -0.4378990497        1.6779126187
 C        -9.7667030139        0.2893654958        0.6716386383
 O       -10.9663197119        0.1203725043        0.8079777685
 C        -9.2652350594        1.2406124184       -0.5059794228
 C        -9.7848558590        0.4587817117       -1.7653355811
 C        -9.1747138852        1.1041904482       -3.0307750397
 O        -9.1462218076        2.3574780669       -3.0827173859
 C        -8.6612976110        0.2312151452       -4.2744648905
 C        -7.4845178288        1.0930546031       -5.0506679538
 O        -6.3393080609        0.8632122018       -4.7533647481
 C        -7.7869506543        2.1674778776       -6.1076317327
 C        -6.5759054702        3.1216982966       -6.2820927667
 C        -6.2098834814        3.8122308666       -4.8403716583
 O        -7.0662592677        3.5822628304       -3.9919682629
 C        -4.8503165213        4.4247087178       -4.3774292430
 C        -5.1816360684        5.6250261415       -3.3436225236
 O        -6.2124825465        5.5573088831       -2.7021122398
 C        -4.3456539905        6.8231212148       -3.2476772776
 C        -4.2247652387        3.3741277654       -3.4936207621
 C        -4.1695509486        4.8629945201       -5.6092810243
 C        -8.0946037962       -1.0309827395       -3.6776853744
 C        -9.8601616887       -0.1539046717       -5.1854944369
 C        -7.8119197417       -1.3476462811        0.9385099233
 C        -9.4608232918       -1.2272642370        2.7203122520
 C        -6.8918650886        5.7031349850        1.0806810450
 C        -7.6176733074        4.5682366698        3.1197072736
 C       -12.2827024424        7.8821846078       -0.4979932221
 C       -12.5053576859        9.4260035186        1.5896369574
 C       -17.0536099491        2.6705513327        3.5490609943
 C       -18.5577328063        4.8838497894        3.1730909262
 H       -18.3927478911        3.5685883292        6.6517712070
 H       -16.9666132977        4.4091628799        7.4119085727
 H       -16.6542378913        2.8829557356        6.4759513880
 H       -16.6287406193        7.1322632371        3.5175311188
 H       -16.5798742047        6.7542601087        1.7938636067
 H       -14.0437077350        6.4828094221        3.1692798793
 H       -14.6381503544        8.1205136285        3.2563597278
 H       -11.0041497066        5.3373285440        0.0406748007
 H       -12.2560685920        4.6456758907        1.0182946684
 H       -10.5672705019        3.7586731528        2.2696789612
 H       -10.0921779653        5.2969320900        2.8985658213
 H        -6.3176772169        2.7098821605        3.1456861011
 H        -5.0052144730        2.4324690102        1.6879026280
 H        -5.7687129088        0.2872969100        2.7833009784
 H        -6.1047959986        0.5757519377        1.0400067363
 H        -8.1726150214        1.3161829585       -0.5984512513
 H        -9.6771624962        2.2427192249       -0.3888050298
 H       -10.8977935367        0.5457674514       -1.8245302747
 H        -9.6352708763       -0.6023013843       -1.8417193266
 H        -8.7006197799        2.6812686124       -5.7233383487
 H        -8.2537890692        1.7015646088       -6.9907851821
 H        -6.8181668800        3.9765598658       -6.9860429776
 H        -5.6448935303        2.5851169865       -6.5620531654
 H        -3.4954899130        6.9317002630       -3.8984541966
 H        -4.0290716360        6.9558763188       -2.2496932427
 H        -4.9765336018        7.7384489518       -3.4383892461
 H        -3.1324384143        3.6712497734       -3.2513392499
 H        -4.2565828535        2.3860417766       -3.9461000416
 H        -4.7484040943        3.4397294186       -2.6361039337
 H        -4.6686496672        5.7758337027       -6.0850356973
 H        -4.0077563991        3.9561590853       -6.3204859713
 H        -3.1432436058        5.2630063050       -5.3352531029
 H        -7.5034803739       -0.7085462831       -2.8447297309
 H        -7.4547012938       -1.5294682373       -4.4416480638
 H        -8.8709740871       -1.6415946080       -3.2599718083
 H       -10.7011198547        0.5073202203       -5.3898323004
 H       -10.2951223750       -1.1624781964       -5.0849933195
 H        -9.4758173424       -0.2812151439       -6.1463035454
 H        -6.9705137971       -1.6319244430        1.5909708204
 H        -7.4422345490       -1.0610305342       -0.0393671249
 H        -8.4709194407       -2.2578635791        0.7789691486
 H        -8.7369486483       -1.7668214915        3.3067959550
 H       -10.1164307675       -2.0118562780        2.4063354288
 H       -10.1644527101       -0.4841410443        3.2360825080
 H        -5.8789486911        5.5376792776        1.1516320369
 H        -7.2938875213        6.5856986546        1.6386906170
 H        -7.2329041414        5.8923705940        0.0455773867
 H        -8.1454357609        5.4940459744        3.5659443696
 H        -6.6285640721        4.8252593646        3.4154961400
 H        -7.8296021016        3.6042108093        3.6539949091
 H       -11.2524873583        8.3382770113       -0.6168608906
 H       -12.7571012511        8.5582603172       -1.1617005622
 H       -12.4662445900        6.8897871216       -0.8678671660
 H       -13.4567548679        9.7897883911        1.4597046526
 H       -11.8739921180       10.1380250313        1.0404544913
 H       -12.0983133075        9.6406222854        2.5445240708
 H       -16.2482350802        2.3935893219        4.1538077315
 H       -16.6901118582        2.5359130559        2.5244333038
 H       -17.9053300001        2.0252456271        3.8286603675
 H       -19.5026285090        4.3972083598        3.5162748261
 H       -18.8632913199        4.7947331696        2.0997369350
 H       -18.4270042623        5.8902542277        3.4801404053
 Na       -7.7914243162        3.9695687050       -1.8558441297
