117

 C       -17.6833057841        4.2171534693        6.4436829722
 C       -17.0865644018        5.1939040066        5.2857927844
 O       -16.4591921041        6.1895685325        5.5519729798
 C       -17.1706501569        4.5983041155        3.8584830724
 C       -15.8304666949        5.1275784046        3.1985252868
 O       -14.8186118352        4.4639442428        3.2248505573
 C       -15.9983427347        6.5687297552        2.5304437955
 C       -14.7435616414        7.4556970711        2.4696215272
 C       -14.0616129109        7.2946774410        1.1237973029
 O       -14.6575097422        6.7581863438        0.1995467987
 C       -12.6059308635        7.8956544736        0.8277684881
 C       -11.5093188427        6.9169886390        1.6611055408
 O       -10.9953811372        7.4290106318        2.6694739424
 C       -11.4560898228        5.4462189759        1.2605541929
 C       -10.3111583664        4.5577355831        1.7802851225
 C        -9.0840038209        4.5913873397        0.8209176154
 O        -9.3002992233        4.2809307093       -0.3710397798
 C        -7.5089182711        4.5216322219        1.4009806346
 C        -6.7420330535        3.2202662083        1.1233365828
 O        -6.8905861396        2.7994401598        0.0043555205
 C        -5.8869818865        2.5021435921        2.1996962025
 C        -6.2674954846        0.9203898294        2.2267311037
 C        -7.8197445101        0.6393348355        2.3546358875
 O        -8.4753139580        1.3641451201        3.1135387311
 C        -8.6956955136       -0.3796911213        1.5936342986
 C        -9.7978643191        0.3626274435        0.7112166323
 O       -10.8971419930        0.2581696549        1.1336564717
 C        -9.4446899172        1.1603657176       -0.4965235897
 C        -9.8377790390        0.4874400287       -1.7600908312
 C        -9.2314890231        1.1701576300       -3.0561795459
 O        -9.4978596722        2.2944504976       -3.3029138446
 C        -8.3984398127        0.2001402161       -4.0060425677
 C        -7.3029879357        0.8108460932       -4.9445903785
 O        -6.0956982082        0.6140366438       -4.8848528578
 C        -7.7351805905        1.9178749059       -6.0001934902
 C        -6.6083745641        2.8977688793       -6.0706793181
 C        -6.5124317933        3.6408020404       -4.6986050654
 O        -7.3910795583        3.5545156481       -3.8928505721
 C        -5.1756978712        4.3317967518       -4.2616688072
 C        -5.2749425931        5.5499525565       -3.4063088621
 O        -6.2759982569        5.7703237047       -2.7002275757
 C        -4.0446906533        6.4986476615       -3.1965552371
 C        -4.5142245163        3.1440717630       -3.3350094421
 C        -4.0608566781        4.4105474680       -5.4062539827
 C        -7.8224254453       -1.0759498841       -3.4255725743
 C        -9.5916801161       -0.2078300829       -4.9935262992
 C        -7.8978170995       -1.3480938861        0.5215213411
 C        -9.4175331569       -1.1446501825        2.7519551527
 C        -6.7113064136        5.6984502861        0.7025802086
 C        -7.6048378353        4.8518870569        2.9335775692
 C       -12.3250885403        7.8428538760       -0.5973395797
 C       -12.4275790834        9.3265954448        1.3625093628
 C       -17.1360813244        3.0337720041        3.8938992996
 C       -18.5128252948        4.8373594991        3.0509396221
 H       -18.4653168177        3.6378119320        6.1287265005
 H       -17.9294545943        4.6922268506        7.3974695407
 H       -16.8320180747        3.5645305447        6.5594841902
 H       -16.7191139331        7.1592868160        3.0156177285
 H       -16.4081398150        6.4879587146        1.4364164550
 H       -14.0807396275        7.4092874398        3.4094729933
 H       -15.0891994480        8.4979949654        2.4010372500
 H       -11.6217561433        5.3765376146        0.1718780665
 H       -12.3217111878        4.9605303660        1.7295602391
 H       -10.6781005564        3.6398618236        2.1559027844
 H        -9.9864914376        5.0362335620        2.6741969503
 H        -5.9094914504        2.8038459990        3.1858206784
 H        -4.9546950818        2.5890138392        1.6754366445
 H        -5.7638024567        0.6471125234        3.1329189364
 H        -5.8582466889        0.3649487221        1.3299564979
 H        -8.3267269632        1.2643380266       -0.5132454550
 H        -9.8382433159        2.1972258179       -0.2990204602
 H       -10.9564134220        0.4750777551       -1.8825430650
 H        -9.5022987014       -0.5934526224       -1.7786852573
 H        -8.7202843613        2.2277813103       -5.7708664771
 H        -7.9528604273        1.3991401730       -6.9389796181
 H        -6.7709032441        3.8042900777       -6.6673536454
 H        -5.6516654519        2.4387492485       -6.3270464084
 H        -3.1265017846        5.9282456505       -3.2174266046
 H        -4.1172270878        7.0825817375       -2.2342564029
 H        -3.9186386035        7.2338782146       -4.0078352235
 H        -3.5020589006        3.2866892027       -3.3276214705
 H        -4.5884137347        2.2501474728       -3.9737680619
 H        -4.9993956116        2.9934290832       -2.3100833062
 H        -4.4928521954        4.3794163616       -6.3298213161
 H        -3.4810394919        3.6052088422       -5.3201652554
 H        -3.5473574811        5.3472818630       -5.4139059623
 H        -6.9147205164       -0.8373643354       -2.8494854135
 H        -7.6137306709       -1.6147768335       -4.3313538973
 H        -8.4865488916       -1.6263193292       -2.7021434690
 H       -10.3407278562        0.5504969816       -4.9990377991
 H       -10.1114985763       -1.0490897492       -4.6108643676
 H        -9.4485709029       -0.5547400466       -6.0564665225
 H        -7.3319054925       -2.1196804409        1.0188266850
 H        -7.1374746142       -0.7023817215        0.0714832792
 H        -8.5406986770       -1.7931759514       -0.1999714468
 H        -8.6875301279       -1.5779597645        3.4125567852
 H       -10.0506717100       -2.0005100289        2.4375570355
 H       -10.0767593196       -0.4515705504        3.1832814605
 H        -5.6923558145        5.7329898462        1.2026047477
 H        -7.2901718682        6.5923535314        0.7564420914
 H        -6.5456370249        5.3956659506       -0.3368562648
 H        -7.9668172609        5.7998881672        2.9813902583
 H        -6.6418608475        5.0613770093        3.4955157369
 H        -8.2358752177        4.0478999750        3.3862321430
 H       -11.4351897139        8.2478833271       -1.0072628083
 H       -13.1349003499        8.4888814001       -1.0568911993
 H       -12.6095429765        6.9074842420       -1.0650902235
 H       -13.3621736198        9.9552838977        1.3174222068
 H       -11.7519985228        9.9485973236        0.8361541654
 H       -11.8719088103        9.4030391755        2.2983744043
 H       -16.0976355127        2.6860656257        3.8420329368
 H       -17.7916119449        2.5676223961        3.2009568540
 H       -17.4570593388        2.6616529696        4.8321658585
 H       -19.4120108745        4.4708072273        3.4218486233
 H       -18.4048663143        4.2577475306        2.1634192160
 H       -18.6841477408        5.8581658434        2.7185456284
 Na       -7.7841524673        4.2781036101       -1.9466130736
