117

 C       -17.9385870995        4.7200603446        6.4688908791
 C       -17.0319880808        5.2831576268        5.3923655332
 O       -16.4976617221        6.3500368666        5.6744281692
 C       -17.0564950109        4.5261484066        3.8139881541
 C       -15.8422036115        5.1119309388        3.0830703112
 O       -14.7443860300        4.6007115832        3.0862777021
 C       -15.9998917511        6.5810163302        2.5383257502
 C       -14.8082243149        7.4357685608        2.3855374076
 C       -14.1173580993        7.2333606206        1.0223802486
 O       -14.5463670025        6.6734128736        0.0663753598
 C       -12.6003314023        7.8473683515        0.7744117447
 C       -11.6097878652        6.8961345448        1.6756619299
 O       -10.9401291896        7.4109971108        2.5417193849
 C       -11.4338527533        5.4110460731        1.2992205131
 C       -10.2471704407        4.6047941693        1.8793216707
 C        -9.1227103357        4.5148982622        0.9053729888
 O        -9.3207465324        4.3314930920       -0.2773038132
 C        -7.6849399424        4.6283905495        1.4954674206
 C        -6.9326173369        3.2335402706        1.1061354364
 O        -6.8676306580        2.8463397438       -0.0402790578
 C        -6.0405511126        2.5235119299        2.0900046158
 C        -6.3819840500        1.0117912132        2.1024461525
 C        -7.9633526336        0.8040142650        2.3125703691
 O        -8.4601332720        1.5160523361        3.1999466636
 C        -8.6523768707       -0.4185841695        1.6151893916
 C        -9.8496628691        0.3146681098        0.8448923539
 O       -10.9633487934        0.4102543223        1.2523247207
 C        -9.4048415192        1.0956142379       -0.4949221573
 C        -9.9060783077        0.3876642284       -1.8127310304
 C        -9.1480403031        1.0965910054       -3.0682821000
 O        -9.6035407005        2.2331880811       -3.3316652192
 C        -8.3368079801        0.0927824341       -4.0606582344
 C        -7.1643451999        0.7823431576       -4.9186354428
 O        -5.9685322540        0.5609576150       -4.8546059438
 C        -7.6809633867        1.8889630666       -5.9558076077
 C        -6.6450888267        2.9692552946       -6.0820948820
 C        -6.5065178028        3.6855921516       -4.6645236101
 O        -7.5340467099        3.5843195039       -3.9901294381
 C        -5.1299990060        4.0556925710       -4.1331485132
 C        -5.2534949746        5.4372973754       -3.2887539072
 O        -6.2358758202        5.9509731326       -2.7656154449
 C        -3.9338869722        6.2465881565       -3.2963864749
 C        -4.6527606012        3.0419938488       -3.1370360806
 C        -4.1683661359        4.3069820737       -5.3800891974
 C        -7.8780699986       -1.1588051151       -3.2588827027
 C        -9.4925077277       -0.4523239329       -4.9356203556
 C        -7.9313240832       -1.2979841676        0.5279396460
 C        -9.2348249900       -1.4333358391        2.6222390228
 C        -6.7168463336        5.5932174111        0.5957931531
 C        -7.4805295278        5.0999074770        2.9758531616
 C       -12.3462495735        7.7720375381       -0.7321596185
 C       -12.4351442772        9.2736092692        1.3670190041
 C       -16.9346293713        3.0421409994        3.9372044672
 C       -18.3635614094        5.0728523552        3.1341547161
 H       -18.9163723806        4.1796274869        6.1055583059
 H       -18.1228486294        5.5585093010        7.1329771351
 H       -17.3522680556        4.0471207150        6.9587352174
 H       -16.6378274876        7.1896188636        3.2647052392
 H       -16.6012338978        6.6486697276        1.5783838019
 H       -14.0918323065        7.1835646062        3.2215003544
 H       -15.0202275993        8.5178614913        2.5198177265
 H       -11.4699568488        5.2790360094        0.2046209165
 H       -12.2751480614        4.8319650759        1.6966997707
 H       -10.6670907645        3.6147173921        2.0916322404
 H        -9.9537694487        4.8679278324        2.8902760682
 H        -6.0806462117        2.7840356588        3.2225785677
 H        -5.0972522290        2.6938115927        1.5873638766
 H        -5.7187994353        0.6021288168        2.8717353070
 H        -6.1667868058        0.6514922104        1.1315381473
 H        -8.3490193556        1.2868354620       -0.5101957457
 H        -9.8343722304        2.0598689041       -0.3886902707
 H       -10.9178067475        0.7392744098       -1.9617112521
 H        -9.8724669809       -0.6785099768       -1.8494809857
 H        -8.6457882134        2.1554624528       -5.6287045901
 H        -8.0213929712        1.4239929349       -6.9506585637
 H        -6.8522346513        3.6624634327       -6.8784889724
 H        -5.7440631765        2.5129795594       -6.2137239906
 H        -3.1318572231        5.6579656672       -2.9695962577
 H        -3.9611287133        7.1846998497       -2.7764776461
 H        -3.6157644478        6.5254847196       -4.3870026306
 H        -3.7137225510        3.4980012267       -2.6282108532
 H        -4.2561144477        2.0370726020       -3.5155942831
 H        -5.4913824354        2.9928224500       -2.5022745369
 H        -4.7638585259        4.2301406338       -6.2645382316
 H        -3.4853722111        3.4773667263       -5.4200824772
 H        -3.7460624177        5.2876482583       -5.4734177087
 H        -7.4337649779       -0.8605147682       -2.3674501343
 H        -7.3808771481       -1.8451260127       -3.9292043585
 H        -8.8288710463       -1.6355153159       -2.8910495861
 H        -9.9218214332        0.3675287900       -5.5431975085
 H       -10.3746470185       -0.8190620888       -4.3592508773
 H        -9.2765942173       -1.3116618247       -5.5779240516
 H        -7.4050492849       -2.1379880033        0.9484439126
 H        -7.1943505953       -0.6639208241        0.0603523679
 H        -8.6954610496       -1.6828390955       -0.1521550324
 H        -8.5336713110       -2.0152814357        3.1269509513
 H       -10.0134123121       -2.0750006295        2.2124881767
 H        -9.8143178817       -0.7093425591        3.2835217130
 H        -5.8000011200        5.8387934646        1.0919921630
 H        -7.3557198085        6.4444465305        0.2436927393
 H        -6.4739588061        4.9365105906       -0.2700598178
 H        -8.0987548153        5.9363291700        3.3231826055
 H        -6.5589202835        5.6069016387        3.1115532232
 H        -7.5968589259        4.1041442648        3.5254312000
 H       -11.2988008879        7.9995120971       -1.1206764901
 H       -13.0312152177        8.5127426104       -1.2458757517
 H       -12.6535510258        6.8641010683       -1.2248416101
 H       -13.2490670015        9.9762330627        1.0891750368
 H       -11.5366514831        9.8846711946        1.1627617960
 H       -12.2036963193        9.2293833450        2.4569876352
 H       -15.8404739728        2.8978833603        3.8929223436
 H       -17.5170814987        2.5142375318        3.1137725033
 H       -17.2558930049        2.4831578838        4.8864430481
 H       -19.2436435281        4.6785834161        3.6144379733
 H       -18.6178264549        4.8780095959        2.0196983584
 H       -18.4693566326        6.1280079406        3.2880869476
 Na       -7.6803116134        4.2381873057       -2.0026980892
