117

 C       -18.2532265094        5.0413472783        6.4412312624
 C       -17.1303110629        5.4165904165        5.4556718091
 O       -16.4341733746        6.4123482545        5.4529738528
 C       -16.8990632550        4.6833281891        4.0709404719
 C       -15.7491081588        5.3696955292        3.1435927331
 O       -14.7240043547        4.7327180476        2.8795517094
 C       -16.0197999855        6.6814684625        2.5405679943
 C       -14.7129549753        7.4075682798        2.2461078046
 C       -13.9975056986        7.1500045413        0.8827870157
 O       -14.5878326130        6.5405789343        0.0104393032
 C       -12.5884600900        7.7205216304        0.8022794690
 C       -11.5359857140        6.9113194526        1.5432798380
 O       -10.8498656475        7.2928639643        2.4422154657
 C       -11.6680347927        5.3494507377        1.2260885648
 C       -10.3808893768        4.7399775225        1.9892367091
 C        -9.0626478990        4.5522466791        1.0413269900
 O        -9.2638512997        4.4644620425       -0.1406622183
 C        -7.5336567469        4.6619315409        1.4461517892
 C        -6.8760715695        3.3398745581        1.0814519833
 O        -7.0087850766        2.9528587493       -0.1304609788
 C        -6.2100121486        2.4643295634        2.1323709379
 C        -6.4926067209        1.0093430349        1.9633539916
 C        -7.9450657973        0.7415304108        2.3823788471
 O        -8.4990122193        1.5206065000        3.0628544807
 C        -8.7066764551       -0.3658727166        1.6200256733
 C        -9.9034285418        0.3694673778        0.8970384028
 O       -11.0471952636        0.5387243322        1.3630667613
 C        -9.3925021834        1.0324753497       -0.4872547894
 C       -10.0022153790        0.3521142793       -1.7803270217
 C        -9.3271712006        0.9255647908       -3.0566603774
 O        -9.3920359545        2.0531586023       -3.4759664924
 C        -8.4669552390       -0.0176201208       -4.0009989632
 C        -7.2982119950        0.7807653942       -4.8042266726
 O        -6.1503566283        0.4350611504       -4.6721485494
 C        -7.6568804433        1.7640506451       -5.9264713373
 C        -6.7032908412        2.9140928568       -6.1069187291
 C        -6.5242431407        3.5511894903       -4.6425606944
 O        -7.5911549185        3.7415538578       -4.1334098646
 C        -5.1730890262        4.0213422464       -4.1102445116
 C        -5.1655333676        5.5055211660       -3.4709740064
 O        -6.1018827935        5.8678822431       -2.8479444355
 C        -3.8210866748        6.1943236593       -3.2372316042
 C        -4.7663936370        2.9276078370       -2.9042529678
 C        -4.1925882754        4.1232030101       -5.3227641454
 C        -7.6324218900       -1.1924042650       -3.1249435705
 C        -9.3818687715       -0.6099759276       -5.0539856604
 C        -7.8318155608       -1.1303102198        0.6291614441
 C        -9.1662570500       -1.5875752958        2.5660029242
 C        -6.8406846331        5.7441891736        0.4504815134
 C        -7.3848843769        5.2014470433        2.8664572178
 C       -12.2321185941        7.7528536831       -0.7322631798
 C       -12.5638689865        9.1434027039        1.3238111649
 C       -16.7754239337        3.1418741519        4.0097814334
 C       -18.2245044745        5.1780067439        3.3977784802
 H       -19.1084489648        4.6274316364        5.8818010276
 H       -18.4886804189        6.0250425383        6.8472344622
 H       -17.9127716130        4.3241816972        7.3091178882
 H       -16.6762945982        7.3310261972        3.2455452512
 H       -16.6265977947        6.5340308181        1.6768935281
 H       -14.0394213018        7.0154263440        2.9620042155
 H       -14.6845326631        8.4969003498        2.4745511073
 H       -11.5363538574        5.0898205158        0.1790919529
 H       -12.6616290073        4.9541180279        1.5549911047
 H       -10.4992467379        3.6424446265        2.2251558642
 H       -10.2652850019        5.1105932801        3.0538502691
 H        -6.7885370033        2.6080512001        3.1187245784
 H        -5.0894429493        2.6872049936        2.1650661050
 H        -5.6925750419        0.4231840397        2.4506311618
 H        -6.5074956344        0.8838152231        0.9186641502
 H        -8.3501945845        0.9732074738       -0.5232386071
 H        -9.5400511641        2.0636867425       -0.4181907310
 H       -11.0531418903        0.5457164519       -1.8248429772
 H        -9.7385938163       -0.6506930698       -1.8200398035
 H        -8.7136697278        2.1032029270       -5.7077209681
 H        -7.8940574141        1.2585546661       -6.8543354578
 H        -7.2369996829        3.5611297419       -6.7402463261
 H        -5.7013801619        2.6397400520       -6.4982866844
 H        -3.1311795959        5.4043222206       -2.8160678114
 H        -3.9039680822        7.0422605834       -2.5967673558
 H        -3.3256096939        6.5273749799       -4.0960944905
 H        -4.0045067056        3.3344646365       -2.1402665396
 H        -4.2156414413        2.1142826148       -3.4030427991
 H        -5.7585519663        2.6449988706       -2.5598259851
 H        -4.7374785949        4.3626536055       -6.3165505786
 H        -3.7491592032        3.0314124192       -5.3992938705
 H        -3.4524445022        4.9167992024       -5.1931145695
 H        -7.6517769233       -0.7972450081       -2.1325169901
 H        -6.7130845319       -1.4998503027       -3.6204843204
 H        -8.2536252060       -2.0093937829       -3.0761256205
 H        -9.1672667518       -0.2003120130       -6.0740932930
 H       -10.5126210498       -0.5123389538       -5.0152451223
 H        -9.2485561511       -1.6647759722       -5.0961741852
 H        -7.0719731001       -1.7056372149        1.1863406484
 H        -7.2717980141       -0.4768521689       -0.0185379724
 H        -8.4903856248       -1.8782270856        0.1375344642
 H        -8.2189910952       -2.1273601732        2.8971251500
 H        -9.8777042773       -2.2495587295        2.1102251424
 H        -9.6403517225       -1.1977103138        3.4936463000
 H        -6.0108840010        6.2093903682        0.9287437759
 H        -7.6943480065        6.4309498003        0.2420705146
 H        -6.4829627689        5.2422305473       -0.4545536236
 H        -8.1241497205        6.0914992667        3.0715018658
 H        -6.5019450571        5.8048198393        2.9946052402
 H        -7.5313627120        4.3667971999        3.4738761602
 H       -11.0815360662        7.8309448589       -0.7712413409
 H       -12.6828521389        8.4344219131       -1.4336551990
 H       -12.3742353747        6.7513498388       -1.2386077641
 H       -13.0079097662        9.7871328922        0.6122380605
 H       -11.5030168763        9.5428004655        1.3960615141
 H       -12.7783178145        9.3879961945        2.3608298476
 H       -15.6986067301        2.8672718932        4.2002428782
 H       -17.1802752932        2.8593023006        2.9720512741
 H       -17.3925946384        2.4787780533        4.6979356537
 H       -18.9874839679        4.4043491079        3.8315569233
 H       -18.4237863676        5.2000358656        2.2983054235
 H       -18.6682662302        6.1272960597        3.7278110668
 Na       -7.6750016218        4.1765510999       -1.8555441032
