117

 C       -18.2809754628        5.3636119344        6.2433744604
 C       -17.0374769654        5.6494883058        5.4171649325
 O       -16.3708055043        6.6196567900        5.6235827184
 C       -16.9127889396        4.7791651116        4.0872500697
 C       -15.7630851717        5.4916435649        3.1746051536
 O       -14.8142709093        4.8150358677        2.8190326249
 C       -15.9831018358        6.8379191773        2.6269319879
 C       -14.5953778961        7.4661078868        2.2914829694
 C       -13.9971810354        7.0737873937        0.7713641918
 O       -14.6096123020        6.3788895954       -0.0545499376
 C       -12.5668155771        7.6900587779        0.6904614835
 C       -11.6266375829        6.7434998445        1.5348713016
 O       -10.7740491138        7.2705065326        2.2397930841
 C       -11.5217213956        5.2054480329        1.3067832172
 C       -10.2717314106        4.6240623100        1.9598815029
 C        -9.1208460482        4.7596560646        1.0016930598
 O        -9.4004586890        4.5742498495       -0.1911681115
 C        -7.5619218851        4.9223710874        1.3887920525
 C        -6.9593045116        3.4698814332        1.1386315774
 O        -6.9249977062        2.8969022372       -0.0038002536
 C        -6.2996229928        2.5481314075        2.2090360002
 C        -6.5517037861        1.0477329627        1.8147638573
 C        -7.9945586116        0.6763295738        2.2799360830
 O        -8.5904850519        1.4449963444        3.0051623208
 C        -8.7233336511       -0.4918437917        1.5817379523
 C        -9.8762369515        0.3484075672        0.8089021162
 O       -10.9072915415        0.6049404467        1.3691341309
 C        -9.5742804041        1.0393967121       -0.5204482611
 C       -10.0173905361        0.3212456519       -1.7793865418
 C        -9.2944460048        0.7898388436       -3.0914811453
 O        -9.3366129381        1.9148412502       -3.3955133158
 C        -8.4765557816       -0.2332632463       -4.0246509096
 C        -7.4237718377        0.5970185274       -4.7243218933
 O        -6.2330856044        0.4803836537       -4.4679547485
 C        -7.8402805494        1.5985332861       -5.8741823022
 C        -6.7756656588        2.7553186780       -6.0008081086
 C        -6.6385735821        3.6470132954       -4.7598362752
 O        -7.5596154895        3.9783922034       -4.0576951500
 C        -5.1763527173        4.0052690031       -4.2124022852
 C        -5.0526979364        5.3300398190       -3.3385836925
 O        -6.1178213757        5.7657747047       -2.8997839648
 C        -3.7759486117        6.1089807626       -3.1787417743
 C        -4.8900260899        3.0000612197       -2.9460871821
 C        -3.9502530387        3.7789548957       -5.2479120524
 C        -7.6105149659       -1.1584970530       -3.0670794321
 C        -9.2544016513       -0.9449445651       -5.1203763078
 C        -7.6731862318       -1.1760079719        0.5784600486
 C        -9.3213026052       -1.5437296219        2.6862190874
 C        -7.0378442889        6.0502286316        0.4034409220
 C        -7.2803288633        5.3091375052        2.9154797732
 C       -12.0040292300        7.7251490264       -0.7832282040
 C       -12.5518767738        9.1730311011        1.2106543858
 C       -16.6389094376        3.2555419522        4.1400249039
 C       -18.3131504454        5.0440970411        3.4506889134
 H       -18.9984306958        4.8921369704        5.6773093444
 H       -18.5874158318        6.4184998996        6.4957690219
 H       -18.0471602852        4.7622164574        7.2022078182
 H       -16.7028923725        7.4423211537        3.0668077465
 H       -16.4057051198        6.6415006166        1.6458187078
 H       -13.9296420913        7.5373569080        3.1081651148
 H       -14.7544990650        8.4980421899        2.0484436940
 H       -11.4843040765        4.9779006946        0.2362783001
 H       -12.4763940496        4.8456010803        1.6826022075
 H       -10.1559378964        3.6074830610        2.4157116543
 H       -10.0950216931        5.2810758128        2.8736383810
 H        -6.7818364736        2.6044244156        3.1282588894
 H        -5.1599607593        2.7444455649        2.2223213862
 H        -6.0293424493        0.4066831846        2.5088823647
 H        -6.2378569925        0.9232352077        0.7352640851
 H        -8.5138637075        1.2926276393       -0.4909044094
 H       -10.0323083122        2.0407082483       -0.4417937414
 H       -11.0266471512        0.6675320523       -1.9587811423
 H        -9.8581287102       -0.7571938776       -1.6878732331
 H        -8.9412664057        1.7976006314       -6.0368849658
 H        -7.7210215924        1.0236776251       -6.7488037975
 H        -7.1286419245        3.2865268323       -6.9179906132
 H        -5.6839884556        2.3872082254       -6.0875950787
 H        -2.8514086742        5.5629036941       -2.9027953113
 H        -3.9474939047        6.9620034698       -2.4843723207
 H        -3.5940043321        6.5817424127       -4.0902572940
 H        -4.2610761490        3.3952672407       -2.2607240589
 H        -4.2947682455        2.2550195122       -3.3806003917
 H        -5.9082001504        2.5978703039       -2.5932214221
 H        -3.8279344794        4.6160160520       -6.0181538184
 H        -4.1259803578        2.8030336077       -5.7114709158
 H        -2.9510086805        3.7594010454       -4.6343401865
 H        -7.7709444698       -0.7598531446       -2.0526240408
 H        -6.6355913611       -1.1973051487       -3.4826887514
 H        -7.9730548281       -2.1604663112       -3.1687807576
 H        -8.6996736306       -1.1154367795       -6.0503323062
 H       -10.0915304495       -0.3581041205       -5.4543007005
 H        -9.7263074060       -1.8904372135       -4.7491217346
 H        -6.6565662872       -1.2429213204        1.0210060516
 H        -7.5847770445       -0.4412484397       -0.2478832902
 H        -7.9811653331       -2.1837885467        0.3246710047
 H        -8.3462964100       -2.0256639439        3.0636738906
 H        -9.9163560827       -2.3268000345        2.1620646816
 H        -9.8384634841       -1.1691945830        3.5441602539
 H        -6.2861481672        6.6173036069        0.9998453959
 H        -7.8743309576        6.6564962164        0.2231905247
 H        -6.5611750025        5.6471386578       -0.4520058538
 H        -7.5257652899        6.3269390933        3.0141725264
 H        -6.1622600951        5.4299188083        3.1011288072
 H        -7.8459952327        4.5830780928        3.4853728926
 H       -10.9482534461        7.8252285753       -0.6999139023
 H       -12.4370319592        8.3411068965       -1.5574596061
 H       -12.0006535966        6.6979743344       -1.2762680290
 H       -12.8966587785        9.8835796325        0.4875875790
 H       -11.5926060212        9.5468168753        1.5124110473
 H       -13.0452778026        9.3254987074        2.1390889196
 H       -15.7628368236        2.9719251116        4.7710258945
 H       -16.7007782795        2.8479762939        3.1545180258
 H       -17.4798628969        2.7669994803        4.6013250571
 H       -19.1143148927        4.2637773281        3.6531318136
 H       -18.2261804220        5.1332518094        2.3777761248
 H       -18.8589810184        6.0310971406        3.6393179321
 Na       -7.7683914480        4.1574219037       -1.7905896552
