117

 C       -18.3079614731        5.6302968970        6.2718777405
 C       -17.0354246294        5.9284082598        5.3596373357
 O       -16.1969992645        6.7295837556        5.7895655176
 C       -16.9969496396        4.9209446177        3.9622529773
 C       -15.8202511605        5.4437374155        3.0531552430
 O       -14.8265609823        4.7695543245        2.9025743616
 C       -16.0264640737        6.9464013136        2.5493169880
 C       -14.7141393776        7.5961138024        2.0728590895
 C       -14.0571807451        7.1451808419        0.8174204666
 O       -14.4888257565        6.3648284483        0.0578797717
 C       -12.4747987852        7.5998798730        0.6180367539
 C       -11.5530700277        6.7203484792        1.4622167891
 O       -10.6947484867        7.3034536669        2.1309117867
 C       -11.4706344323        5.1326699798        1.4905684882
 C       -10.1950655532        4.6032236516        1.9245301972
 C        -9.1240070874        4.7472085861        0.9293408796
 O        -9.3845060867        4.7200902421       -0.2647557087
 C        -7.5977044400        5.0095619288        1.3670182337
 C        -6.9486929432        3.5827526101        1.1075619387
 O        -6.9132102876        3.1481365779        0.0159671951
 C        -6.3759756563        2.7561705859        2.3150270682
 C        -6.5530706167        1.1987518603        1.9464591806
 C        -8.0038899679        0.7417831825        2.1899985314
 O        -8.7440730628        1.3217044832        3.0303045625
 C        -8.6854802259       -0.5658754744        1.4328482308
 C        -9.8584952117        0.2826491440        0.7597222105
 O       -10.7903079514        0.5329741363        1.4284658021
 C        -9.6805645219        1.0410677243       -0.6699143956
 C       -10.0888060300        0.1190855041       -1.8100916721
 C        -9.2892504509        0.6554542937       -3.1376983826
 O        -9.2820952073        1.8954055049       -3.2825013566
 C        -8.3892629001       -0.3987822248       -3.9788093216
 C        -7.3353341632        0.5445548805       -4.7329270470
 O        -6.1800384140        0.7092219636       -4.3537233483
 C        -7.9263575253        1.5742396790       -5.7988927200
 C        -6.7617757269        2.6715019575       -5.9278166176
 C        -6.6157688194        3.5976643137       -4.7243482216
 O        -7.5613821524        4.1234151094       -4.1383313879
 C        -5.0482565600        3.8431426411       -4.1366916477
 C        -5.1211798442        5.3243285899       -3.4596807132
 O        -6.1148007817        5.6656212012       -2.7729445275
 C        -3.8099006569        5.9813948362       -3.2931453619
 C        -4.9838581400        2.8645931387       -3.0372495586
 C        -3.8491672678        3.5678903677       -5.0814985350
 C        -7.7837608704       -1.4021920865       -2.9746484193
 C        -9.2456359694       -1.3179797738       -4.9724894978
 C        -7.7342129490       -1.4177964775        0.6136673672
 C        -9.3503157519       -1.2935036334        2.5289417752
 C        -7.1357893098        6.1850190091        0.4761326005
 C        -7.3319017654        5.3925116878        2.8266531921
 C       -11.9160700997        7.6054671508       -0.8316412930
 C       -12.3862785598        9.0605904117        0.9914162574
 C       -16.5417504188        3.5274352778        4.4099905852
 C       -18.3256978293        4.9139651688        3.2367460188
 H       -18.8816757323        4.7880722618        5.8008522137
 H       -18.9074137448        6.5054914669        6.4768292290
 H       -17.8842955812        5.2930846551        7.1005437572
 H       -16.2104484097        7.4122365531        3.4608551016
 H       -16.9499800039        7.2432568757        2.0255287296
 H       -13.9949936485        7.4532536609        2.9387477938
 H       -14.6962073953        8.6610451415        2.0945624714
 H       -11.6986369175        4.6963274154        0.4984935105
 H       -12.2902123699        4.8906666400        2.1730032900
 H       -10.1732208021        3.5753861108        2.3100176397
 H        -9.9496761281        5.1592720595        2.8207756864
 H        -6.7359073281        3.0690346908        3.2730774078
 H        -5.3147652941        2.9005877035        2.2263045517
 H        -6.0113744688        0.4522752032        2.5418312033
 H        -6.2431895473        1.2943434388        0.8686841494
 H        -8.6460421255        1.5298665224       -0.7115782259
 H       -10.3715904062        1.9517031517       -0.6494367660
 H       -11.1676202925        0.3326977703       -1.9907156956
 H        -9.7665299074       -0.9416704366       -1.5567881212
 H        -8.8794906296        1.9190645107       -5.4945398244
 H        -8.2375804260        1.1506816080       -6.7761436211
 H        -7.2277405840        3.3327452984       -6.7685660940
 H        -5.7618849057        2.3209946532       -6.1222872440
 H        -3.1227634767        5.2287402796       -3.0776465841
 H        -3.9242779281        6.5503303001       -2.3583816132
 H        -3.3291336134        6.7447490228       -4.0387354190
 H        -4.2124775873        3.1380369437       -2.3534120213
 H        -4.6095439454        1.9095265690       -3.3992547199
 H        -5.9432006135        2.7976148672       -2.6416165489
 H        -3.4840285396        4.5311893124       -5.2846121843
 H        -4.0962227589        3.1107355061       -5.9767968894
 H        -3.0298560076        2.9955966651       -4.5932566078
 H        -7.7136952642       -0.9588551860       -2.0058142741
 H        -6.8930582795       -1.6819787025       -3.5069592178
 H        -8.3758843403       -2.3854011127       -3.0520254730
 H        -8.7514932943       -2.2154766494       -5.3208931447
 H        -9.4261603544       -0.7701809178       -5.8621007772
 H       -10.2496645712       -1.5455133088       -4.5606871645
 H        -6.7743372342       -1.4954729064        1.1284081669
 H        -7.5661731927       -0.8700766183       -0.3209377016
 H        -8.1520797831       -2.4099348315        0.5434623944
 H        -8.6908474413       -1.6700640861        3.2533376244
 H        -9.9107024071       -2.1173701203        2.0101295130
 H       -10.0587770602       -0.6552351275        3.1187987698
 H        -6.3851785039        6.6445261208        1.1072549978
 H        -7.9614115321        6.8523262441        0.3702414105
 H        -6.6178511356        5.8075180478       -0.3939474274
 H        -7.2431764487        6.4248110265        2.7379127279
 H        -6.2805828038        5.1302254555        3.0351060827
 H        -8.1125299139        5.0101363204        3.5676518215
 H       -10.8889798780        7.8353541475       -0.8076945045
 H       -12.5570811363        8.1881200857       -1.5120147773
 H       -11.8059601212        6.6748423149       -1.3156197519
 H       -12.8802301358        9.8450277841        0.4336695056
 H       -11.4076228909        9.4210243990        1.0716997454
 H       -12.7697993424        9.0548839349        2.0197344965
 H       -15.9445113335        3.5326347675        5.2456831494
 H       -16.2282515600        2.9257407828        3.6334836318
 H       -17.4301971699        3.0647667005        4.7213320775
 H       -19.0581820060        4.2577002925        3.5384307689
 H       -18.0350452230        4.8244161795        2.1761984626
 H       -18.8508735677        5.8600176252        3.1481033519
 Na       -7.8922624753        4.1618130757       -1.8121764540
