117

 C       -18.3214109851        5.8436571902        6.2739155119
 C       -17.1087930557        5.9716027037        5.2708333828
 O       -16.1287302435        6.6244585251        5.6171326899
 C       -17.0337874344        5.1632516492        4.0125276588
 C       -15.8065879612        5.5902672113        3.1577068531
 O       -14.8471985933        4.9035412854        2.8336888594
 C       -15.8981171552        6.9617456794        2.5205940270
 C       -14.7074309176        7.7685484324        2.0173426358
 C       -13.9414674066        7.0348236144        0.7816106371
 O       -14.4596604121        6.2480290694        0.0201241762
 C       -12.4366239778        7.5842049481        0.5636306024
 C       -11.3972525294        6.7776690676        1.4520404250
 O       -10.5235643189        7.2930902066        2.0914179778
 C       -11.6917207403        5.1734375863        1.6902081959
 C       -10.2611035258        4.5955580772        1.9988325300
 C        -9.1178844606        4.8058031074        0.9301336582
 O        -9.3629732620        4.8389982597       -0.2634850325
 C        -7.5571253032        5.1301533671        1.4075527680
 C        -6.8455711641        3.6906646765        1.0741546842
 O        -6.8587153981        3.3466009534       -0.0757843052
 C        -6.5179660950        2.8515627579        2.1977534293
 C        -6.5463376595        1.3060410270        2.0263198392
 C        -7.9950780410        0.8124650422        2.2443586914
 O        -8.7588674465        1.3020452347        3.0439105924
 C        -8.6257641494       -0.4404884566        1.4088787996
 C        -9.8597838100        0.3191314098        0.6838203506
 O       -10.8858625287        0.5206271930        1.3229161945
 C        -9.7508237480        0.8649207761       -0.7517874244
 C       -10.1036471695       -0.0812722276       -1.9317911680
 C        -9.2654792659        0.4858876064       -3.0858019383
 O        -9.1695496838        1.7088869946       -3.2290311799
 C        -8.3921004761       -0.4529973827       -3.9343468832
 C        -7.4116151777        0.6185134369       -4.6217415117
 O        -6.2684713186        0.5646863551       -4.2266067011
 C        -7.8600492701        1.6260621689       -5.6297346097
 C        -6.7954011785        2.6522978403       -6.0465888168
 C        -6.5335454800        3.5308352095       -4.7950610011
 O        -7.5205851486        4.0562050211       -4.3493310149
 C        -5.1347030932        3.7499891638       -4.0414712373
 C        -5.0907087938        5.1164071920       -3.3109387566
 O        -6.0307317836        5.5495181234       -2.7168602055
 C        -3.7780160444        5.9097624728       -3.3818690828
 C        -5.0419683429        2.6519747189       -2.8029553324
 C        -3.9898285089        3.5924182195       -4.9876863732
 C        -7.7084669361       -1.5237495958       -2.9652082012
 C        -9.2976340801       -1.3484107239       -4.8866242634
 C        -7.7828035938       -1.4437772991        0.6737955355
 C        -9.3728446321       -1.2815235451        2.5448155310
 C        -7.0492830007        6.2086805360        0.4322463239
 C        -7.5307475404        5.5395152725        2.9260614758
 C       -12.0340962720        7.3354788558       -0.9310602495
 C       -12.1976386878        9.0964570893        0.9206860749
 C       -16.5509531041        3.8266962467        4.8135052228
 C       -18.2383770544        4.8880824466        3.0987384311
 H       -18.8318903029        4.9149973256        6.0139764441
 H       -18.9308859158        6.6662667149        6.2076007403
 H       -17.8727965822        5.7896429891        7.2949426595
 H       -16.6169258404        7.5956803725        3.1992656311
 H       -16.5830786296        6.9257849696        1.6546727464
 H       -14.0060559154        8.1069932383        2.8500205257
 H       -15.0318927528        8.8015479026        1.7172135447
 H       -12.0967327950        4.6933639290        0.7911692756
 H       -12.4100302659        5.0627174721        2.5241041213
 H       -10.3503128665        3.5111077921        2.0493773201
 H       -10.0137238746        4.8486180071        2.9923794676
 H        -7.2384722070        3.2331708022        3.0352595138
 H        -5.5498802113        3.0907738557        2.5669291242
 H        -5.9716555308        0.7575479652        2.8286879873
 H        -6.1212474192        1.1565964287        1.0611225494
 H        -8.6731232416        1.2437000291       -0.7690486320
 H       -10.3470222008        1.8080297267       -0.8346976957
 H       -11.1803153767       -0.0505948159       -2.2307979707
 H        -9.6570414424       -1.0503519840       -1.6909161829
 H        -8.7578744484        2.0590731592       -5.2376443640
 H        -8.3438161873        1.1007000357       -6.4999853526
 H        -7.3264666991        3.2774602067       -6.7543585491
 H        -5.8920990731        2.2348086296       -6.4201139470
 H        -2.7987772525        5.3853242919       -3.3113749197
 H        -3.7814677022        6.6398256569       -2.5845036192
 H        -3.8290334625        6.5280896106       -4.3122225448
 H        -4.0199581649        2.9986573438       -2.3703813520
 H        -4.9152504482        1.5942020051       -3.0641916637
 H        -5.8321930956        2.8133855387       -2.1257765449
 H        -3.4119241745        4.4510500379       -5.0245898415
 H        -4.2067686427        3.3934287380       -6.0312595267
 H        -3.4327201316        2.8060455651       -4.7027062742
 H        -7.0342600103       -0.9259873275       -2.3445329175
 H        -7.2370817758       -2.2397389933       -3.6873337163
 H        -8.4660046584       -2.1293178993       -2.4691082744
 H        -9.1263577192       -2.3926223971       -4.6461860478
 H        -8.9939521088       -1.2738944459       -5.9685112343
 H       -10.3305370690       -1.1567115957       -4.8191789254
 H        -7.2234692822       -1.9028222913        1.4683081856
 H        -7.1798015764       -1.1606751400       -0.1555243251
 H        -8.5481000867       -2.1914993930        0.4306050695
 H        -8.7642290693       -1.6871647163        3.3200795407
 H        -9.8888208864       -2.0188321120        1.9811566019
 H       -10.1036708278       -0.6633422437        3.1106194782
 H        -6.1143801190        6.4957855384        0.8102239354
 H        -7.7635127126        7.0731372324        0.5161845837
 H        -6.8737432038        5.7028766813       -0.5310349158
 H        -7.8831349394        6.6915102846        2.8417180566
 H        -6.4662951063        5.5534612438        3.0886028776
 H        -8.0829143498        4.8836789635        3.5913911777
 H       -10.9930815683        7.5291853220       -1.1969702724
 H       -12.7641806347        7.7671808721       -1.5546574209
 H       -11.9590355985        6.3032205477       -1.1855035228
 H       -12.8067854198        9.9562886438        0.6125812580
 H       -11.1477975273        9.2993275403        0.5121920156
 H       -12.1627577299        9.2104174148        2.0445062965
 H       -15.9230396045        3.9812378765        5.6250639801
 H       -16.1015092412        3.1456390537        4.1079019101
 H       -17.3869505271        3.2981289129        5.1809838094
 H       -18.9543770361        4.4263715349        3.7346713406
 H       -17.9654340129        4.3538601134        2.1952962176
 H       -18.7413933184        5.6766797158        2.6915562141
 Na       -7.9782224671        4.1841235723       -1.9850863727
