117

 C       -18.3480923065        6.1119375500        6.1900063399
 C       -17.1319210727        6.1448667544        5.2524583943
 O       -16.1246804646        6.7311703877        5.5032053929
 C       -16.9504007511        5.1435568209        4.1030740068
 C       -15.7378131835        5.7501728386        3.1613252989
 O       -14.8401845527        5.0036125891        2.8545797824
 C       -15.9319706697        7.1251254203        2.3373796562
 C       -14.6447371856        7.7667579161        1.8594909803
 C       -13.7800483450        7.1302763000        0.8280207345
 O       -14.3630371464        6.2448398821        0.1313742803
 C       -12.3659166109        7.5099855720        0.5699122067
 C       -11.3979180084        6.7567275609        1.5500577791
 O       -10.4057157066        7.2790296445        1.9655937643
 C       -11.6460649831        5.3134848477        1.6905127412
 C       -10.2632986011        4.5278332492        1.9921621017
 C        -9.2272101402        4.9888290727        1.0141383881
 O        -9.4506864489        4.8803950136       -0.1985221481
 C        -7.7101009356        5.2666747162        1.3733922677
 C        -7.0776013891        3.7714442431        1.0784770893
 O        -6.7186913537        3.4849251813       -0.0960747183
 C        -6.5868484417        2.8908436390        2.2722747746
 C        -6.6150276262        1.3480276303        1.9749001575
 C        -8.0591325058        0.7920991524        2.2958199200
 O        -8.6214402712        1.4464035680        3.0770179963
 C        -8.8106330288       -0.4583070356        1.5247612293
 C        -9.9469131657        0.2501386999        0.6549284805
 O       -11.0420307630        0.5488030602        1.1461494520
 C        -9.6867475879        0.7319114729       -0.6965944771
 C       -10.1297663196       -0.1803481826       -1.8662044948
 C        -9.3160744442        0.3707307058       -2.9830914228
 O        -9.1420366774        1.5397098500       -3.0960057493
 C        -8.4005838967       -0.5807112267       -3.9348741632
 C        -7.3891661343        0.4013898090       -4.5932041117
 O        -6.2604766721        0.3721978307       -4.1973217934
 C        -7.8215632538        1.5515675642       -5.6589884969
 C        -6.7549221446        2.5383322702       -6.0404622749
 C        -6.5770757079        3.4367437030       -4.7072376817
 O        -7.5929005224        4.0359848152       -4.4161321625
 C        -5.0987410381        3.6427108414       -3.9562582952
 C        -5.0715050362        5.0162816765       -3.2512401125
 O        -5.9897742094        5.4235560585       -2.5465614384
 C        -3.8647049331        5.9319094053       -3.4099734938
 C        -5.0066384769        2.5961089703       -2.6686058484
 C        -3.9995146485        3.4136129078       -5.0756026051
 C        -7.4774737119       -1.4964320822       -3.0973705702
 C        -9.3541688411       -1.2178392936       -4.9760337082
 C        -7.7711566237       -1.2463331053        0.6793405958
 C        -9.4268074702       -1.3483480562        2.7028822296
 C        -6.9671751688        6.2482181575        0.4684463668
 C        -7.6387607435        5.6715882432        2.8874066669
 C       -12.1782254266        7.0617427442       -0.9252755955
 C       -12.0587110696        9.0153163943        0.8096769716
 C       -16.5467977053        3.8604353358        4.9674772984
 C       -18.0803488695        4.8189235940        3.1381171945
 H       -18.7312364073        5.1616785014        6.0493388031
 H       -19.0680396078        6.8696762916        5.8073754560
 H       -18.0409468014        6.3524780439        7.2891573083
 H       -16.6594868351        7.8988144673        2.8230755125
 H       -16.5784168490        6.9378933958        1.4413027016
 H       -13.9890467165        8.0030650144        2.6990541589
 H       -14.8287899546        8.8510324866        1.5718581434
 H       -12.1870942718        4.9853179518        0.7971290219
 H       -12.3021320412        5.1815451219        2.5703285476
 H       -10.5417069198        3.4828800221        1.8767673415
 H       -10.0623112351        4.5925848944        3.0686328595
 H        -7.3212056640        2.9961082396        3.1372328613
 H        -5.5579532807        3.1192063625        2.7677496111
 H        -5.9963720078        0.8711681889        2.7449488820
 H        -6.1856701945        1.1353786164        1.0044953022
 H        -8.6683574619        1.0795444974       -0.6612380719
 H       -10.2914669144        1.5995248809       -0.8223393305
 H       -11.1505177440        0.0320391424       -2.1392198373
 H        -9.8778884386       -1.1944844903       -1.7354129184
 H        -8.8535234880        1.8865235984       -5.2752401944
 H        -8.1815992602        1.0045193799       -6.5219124755
 H        -6.9691761368        3.1304657058       -6.8453668373
 H        -5.8336747212        1.9354095973       -6.1533174117
 H        -2.8564388505        5.4047248999       -3.2594528329
 H        -3.8489464252        6.8540002411       -2.8239548008
 H        -3.9403137725        6.2116137229       -4.3899249228
 H        -4.0081480282        2.8514833609       -2.2794384270
 H        -5.0103847792        1.5314149351       -2.9734930363
 H        -5.8894335155        2.8303450625       -1.8791459700
 H        -3.2745491280        4.2433404953       -5.1740925375
 H        -4.3310909993        3.3646475000       -6.1274998244
 H        -3.5279947871        2.4177822039       -4.9607701249
 H        -6.6921486579       -0.7207977680       -2.9915228176
 H        -7.1870502327       -2.3999300449       -3.6418242101
 H        -7.9284829109       -1.7856491009       -2.2087680100
 H        -9.7601620960       -2.1482464185       -4.5210082300
 H        -8.8598270711       -1.5344817566       -5.9196941947
 H       -10.2070022796       -0.5821627118       -5.1999592071
 H        -7.3428423529       -2.0261448416        1.2980665454
 H        -7.0326667012       -0.6138029160        0.2181159449
 H        -8.3728734690       -1.6566782077       -0.1189817366
 H        -8.5603632179       -1.8037549377        3.2626533015
 H        -9.9645376012       -2.0917996296        2.1851699318
 H        -9.9454981013       -0.8785226983        3.4689300413
 H        -5.8883722878        6.1839015140        0.7182880333
 H        -7.3477238069        7.2181536454        0.8206566614
 H        -7.1056025099        5.9490400089       -0.5619154319
 H        -8.5369998635        6.3284066386        2.9955701565
 H        -6.6675684261        6.2441611118        2.9472200851
 H        -7.6099664175        4.8180733111        3.5428243170
 H       -11.2085037233        7.1611661093       -1.3845589386
 H       -12.9634343860        7.5382748225       -1.4461104308
 H       -12.1886206047        5.9582686607       -1.1071570077
 H       -12.9874085311        9.5504327024        0.4846453180
 H       -11.3122706190        9.4175630701        0.0375796604
 H       -11.9247064547        9.4243288625        1.8266462305
 H       -15.6657339058        4.0349617339        5.6880620520
 H       -16.2049232078        3.0553984629        4.2838273593
 H       -17.3792741145        3.4447602367        5.5562742129
 H       -18.9462912030        4.8560297014        3.8300622613
 H       -18.0200714590        4.0763554165        2.4099068373
 H       -18.2906400965        5.6887903236        2.5224310980
 Na       -8.0371410271        4.2159987089       -2.2309418212
