117

 C       -13.2962365464        1.9007439824      -10.4932608627
 C       -13.0622413821        0.4117471135      -10.1294140981
 O       -13.9992750025       -0.3122667522       -9.8248502804
 C       -11.6155059466       -0.2525733239      -10.2383416392
 C       -11.1599699141       -0.4281381141       -8.7266725608
 O       -11.0450388976       -1.5141696095       -8.2162846400
 C       -10.9962924276        0.8922094498       -7.9279266997
 C       -10.8786329744        0.5910222652       -6.4366784210
 C       -10.3648545925        1.7539430293       -5.5022470992
 O        -9.9947761055        2.8150011620       -6.0048154654
 C       -10.3362135770        1.6709163813       -3.9104170287
 C        -9.7947254975        2.9394183401       -3.2218524105
 O        -8.7045831530        3.0054847780       -2.6993669462
 C       -10.7996444754        4.0496816595       -3.1048762096
 C       -10.0974890085        5.3779038466       -2.7155487801
 C        -9.6028308800        5.5507358261       -1.2912185355
 O        -9.7629160792        4.6735134776       -0.4627663088
 C        -9.1809929978        6.9595248685       -0.9267345513
 C       -10.1297111225        7.4495394326        0.3708263599
 O       -10.3036819776        6.6408567437        1.2473419158
 C       -10.5272646741        8.9026650694        0.5466285243
 C       -11.2654456335        8.9763346878        1.8791006020
 C       -10.5424605528        8.1085616026        3.0756905758
 O        -9.3301129961        8.0723835322        3.1455231736
 C       -11.4307484674        7.3435163467        4.1215406425
 C       -10.4121711343        6.2959396594        4.8661497620
 O        -9.9344699618        5.3822253275        4.2123786271
 C        -9.9748883368        6.5046915862        6.4025636813
 C        -9.0053357226        5.4084854714        7.0431110003
 C        -9.7235983668        4.0232763888        7.1547394783
 O       -10.8541811300        3.8145235509        6.8698310947
 C        -8.8226293091        2.8056958470        7.6797347567
 C        -8.1897492438        2.2284292396        6.3078281359
 O        -7.1128934321        2.6840815817        5.9222512779
 C        -8.9009538565        1.1316214852        5.5443648219
 C        -8.1891619737        0.6328482203        4.3129922457
 C        -8.1920728872        1.7434318599        3.2489028241
 O        -9.1716074637        2.4523292015        3.1974993605
 C        -6.8252621860        2.1847835668        2.4275655310
 C        -6.4740600702        3.6645384990        2.9457236414
 O        -7.2178908900        4.5937354737        2.7216496641
 C        -5.1837430785        3.9360629811        3.8977043790
 C        -5.6563307511        1.3399104777        2.9147310970
 C        -7.2313605280        2.1989885692        0.9429721836
 C        -7.7493971301        3.2172216084        8.7245051975
 C        -9.8427771897        1.7875533889        8.2698612414
 C       -11.8332943767        8.4167026584        5.1940373266
 C       -12.5478284790        6.5523253297        3.4847829873
 C        -7.6971504467        6.9016107992       -0.3515103499
 C        -9.2550805431        8.0376969707       -1.9913675157
 C       -11.8183465280        1.3984420611       -3.5549864272
 C        -9.5413364906        0.4335936030       -3.4196029252
 C       -11.7501613220       -1.6538515381      -10.8815406331
 C       -10.6459998459        0.6850401618      -10.9032509354
 H       -14.3986770103        1.9615422012      -10.1927853898
 H       -13.1777076651        2.0010668153      -11.5505486248
 H       -12.5407105329        2.5121094950       -9.9577371982
 H       -11.9123184829        1.4015945270       -8.0093216099
 H       -10.2304095678        1.5916210984       -8.2818508804
 H       -10.3422495585       -0.3135691453       -6.2572088957
 H       -11.8683677353        0.1732959048       -6.2163345914
 H       -11.5349710706        3.8366827397       -2.3203046365
 H       -11.2886171828        4.0847090254       -4.0647249064
 H       -10.8448793781        6.2118233542       -2.9173587489
 H        -9.1186256132        5.4577983174       -3.2059313900
 H       -11.0286164624        9.3293156485       -0.2522091290
 H        -9.5992551142        9.5525385110        0.5876501895
 H       -12.3013899462        8.5554907270        1.8099175085
 H       -11.3361209838       10.0016903376        2.2030346551
 H       -10.7735007515        6.6289482890        7.1438830163
 H        -9.5323107311        7.5012082892        6.4400328825
 H        -8.7268609055        5.6736363140        8.0412915671
 H        -8.0163275178        5.2871698290        6.5757571031
 H        -9.8463675664        1.6280373185        5.2471388938
 H        -9.0499026142        0.3749930287        6.3141746463
 H        -8.6366191096       -0.2833291513        3.8478040608
 H        -7.1549306882        0.3918551436        4.5805131375
 H        -5.0941273316        4.9939891689        4.1434205200
 H        -4.3524473940        3.5170415496        3.3927124953
 H        -5.3560281068        3.3221436044        4.7982968600
 H        -5.7199505412        0.3849822161        2.5825373183
 H        -5.7545630149        1.3484280691        3.9704509274
 H        -4.6899172033        1.7775523294        2.5600256742
 H        -6.5635676103        2.7122395852        0.3913150223
 H        -8.3018362908        2.5194837152        0.7521545497
 H        -7.1995092510        1.2132132452        0.4983562244
 H        -7.2189205049        4.1843493376        8.4548365711
 H        -7.0015008799        2.4147130750        8.7933303349
 H        -8.0577123025        3.5056516193        9.7156466467
 H        -9.3966192649        0.8217858408        8.3922823565
 H       -10.8022844057        1.6053627979        7.7259503529
 H       -10.1964547980        2.0895943546        9.2413712251
 H       -12.3197203153        9.3012532171        4.7866604253
 H       -10.8791402726        8.8818948971        5.5757851468
 H       -12.3734538059        7.9371531008        6.0086462620
 H       -12.1152890582        5.7501348719        2.8264976468
 H       -13.2411389007        7.0590427580        2.8119371093
 H       -13.0225877581        6.0930571468        4.3059657096
 H        -7.4602443246        7.7822619225        0.2099193963
 H        -6.9687016176        6.5982821624       -1.1041466756
 H        -7.6714833539        6.0132467407        0.2710345441
 H        -8.8514760808        7.7606963735       -2.9717017337
 H        -8.8902156791        9.0352956140       -1.6920517683
 H       -10.2432540814        8.1310168705       -2.3080866862
 H       -12.1644776442        0.4592917871       -3.8705847246
 H       -12.5620389841        2.1282596809       -3.8609229545
 H       -11.8579365410        1.3892326242       -2.4516636861
 H        -9.8945832081       -0.5227181101       -3.7971537726
 H        -9.5217688967        0.4612094814       -2.3263256799
 H        -8.5015774852        0.6227136727       -3.6077741878
 H       -12.7796060056       -1.9190317824      -10.8553155288
 H       -11.0636028829       -2.3768932490      -10.4994768640
 H       -11.5069740047       -1.6249788922      -11.9847757462
 H       -10.7941810025        1.7393552805      -10.6160104470
 H       -10.5584566594        0.8205883808      -11.9335868324
 H        -9.6276243141        0.5905295183      -10.6618735146
 Na       -9.3442137107        4.6087192534        1.9640876018
