117

 C       -18.7257461948        8.3266624651        5.1483432626
 C       -17.1072977168        8.4718412866        4.8890838912
 O       -16.7554444183        9.6596868948        4.9004425058
 C       -16.1816608168        7.2348573923        4.5566547803
 C       -15.1252182456        7.6403399879        3.4871072068
 O       -14.0059465385        7.9362718007        3.9238408925
 C       -15.5178799258        7.3793492726        2.0341437839
 C       -14.6002980830        8.1421184141        1.1026584214
 C       -14.3200455743        7.2175603896       -0.1010411064
 O       -15.1160992615        6.4869644914       -0.5609462159
 C       -12.9226520507        7.3759761699       -0.8867124547
 C       -11.7151682978        6.7335634140       -0.1280307857
 O       -10.7547098675        7.3933427575        0.2470949488
 C       -11.6191005062        5.2395651777        0.0227148519
 C       -10.5757625895        4.6917285867        1.0671196754
 C        -9.2643413962        4.2728808194        0.4803817157
 O        -9.1247473159        3.8147172883       -0.6331085709
 C        -7.8801538025        4.7616566887        1.2819297661
 C        -7.1138344584        3.4169894604        1.5461666134
 O        -6.8351904641        2.6487549888        0.6538134155
 C        -6.5515446451        3.0128893837        3.0777552306
 C        -6.8927505702        1.5892845719        3.3296757016
 C        -8.3687400100        1.2620619483        2.7989193685
 O        -8.9909719924        2.1427525958        2.2603138079
 C        -8.9846462185       -0.0984590491        2.9028001303
 C        -9.2969759056       -0.7741804067        1.5285085923
 O       -10.2289728696       -1.5340307766        1.5269907533
 C        -8.4428455088       -0.6482393229        0.2083167385
 C        -9.1635200200       -0.9402361772       -1.1204814143
 C        -8.4647236157       -0.2397835752       -2.3893498885
 O        -7.8448104605        0.8049092074       -2.2810146915
 C        -8.9373982514       -0.8250759307       -3.7268875540
 C        -7.6102072456       -0.7936501031       -4.6399891977
 O        -6.8428445983       -1.7251644527       -4.5363674749
 C        -7.4780364534        0.4230034849       -5.7148565571
 C        -6.1679657149        1.1366737861       -5.5269925908
 C        -6.2096081693        2.4091570544       -4.5319533964
 O        -7.2904015123        2.7219846201       -4.0882319538
 C        -4.8774162715        3.2456762514       -4.1559426451
 C        -5.3317594824        4.4852584999       -3.3767786412
 O        -5.9540484999        4.4645788748       -2.3031774645
 C        -5.0019057273        5.7572339825       -4.0909025630
 C        -4.0905017559        2.2440375719       -3.1384846955
 C        -4.1237641034        3.5022947318       -5.5076906539
 C        -9.5974762951       -2.2607687313       -3.7564367505
 C        -9.8505036848        0.3488362430       -4.2588703565
 C        -8.3095597966       -1.1440152326        3.9195973677
 C       -10.3837674917        0.3429083850        3.4824203320
 C        -6.8488285404        5.6620222443        0.4170461772
 C        -8.2021172376        5.5033465153        2.6298780368
 C       -13.1976513831        6.7884453101       -2.3034825935
 C       -12.6386382140        8.8845518527       -1.0003677232
 C       -15.3896990598        6.7538979458        5.8100750444
 C       -17.1345294315        6.0562445770        4.1330294511
 H       -19.0328679108        7.5862644371        5.8738509644
 H       -18.9913573698        8.1315125468        4.1258279723
 H       -19.1054494779        9.4622127129        5.3064724520
 H       -16.4831962928        7.7479010427        1.8518336042
 H       -15.4566454875        6.3417958417        1.7909589242
 H       -13.6433819930        8.2988661437        1.5990185271
 H       -15.1692997044        9.0279978885        0.6830547062
 H       -11.4156039886        4.8926681701       -0.9858510231
 H       -12.6579706175        4.9276172762        0.2141378706
 H       -10.8449331898        3.9013785236        1.7912458946
 H       -10.3310648059        5.5759895220        1.7250974950
 H        -7.1087779994        3.6050938597        3.7078704640
 H        -5.4844738247        3.3569231587        3.1756777174
 H        -7.1225464695        1.3900895081        4.3950511110
 H        -6.1593592795        0.8838569916        2.9649784847
 H        -7.5851812463       -1.2973724563        0.3595151001
 H        -7.9868191665        0.3089005756        0.2037649362
 H       -10.1476979829       -0.4579071757       -1.1098086711
 H        -9.4337003371       -1.9651729768       -1.1824562446
 H        -8.3456445640        1.1009042281       -5.7120279751
 H        -7.3373328294       -0.1151418856       -6.5630520478
 H        -5.9958035514        1.5759226000       -6.4712285389
 H        -5.2769894215        0.4677091916       -5.3642434908
 H        -5.5018054564        6.5923743905       -3.8031674875
 H        -5.0885901258        5.5420533407       -5.1554454160
 H        -3.8634486223        5.8024362542       -3.9183954728
 H        -2.9708612779        2.4539797644       -3.0643560175
 H        -4.1699856338        1.2285561017       -3.6820418991
 H        -4.3999317051        2.1528969582       -2.0990453219
 H        -3.6708465644        4.5230675742       -5.5241824218
 H        -4.8986695706        3.8186597914       -6.3216753116
 H        -3.5785524098        2.6031141014       -5.8270022032
 H        -8.9187558337       -2.8874483258       -3.1662606077
 H        -9.7600231827       -2.6061054207       -4.7560052708
 H       -10.6192820194       -2.1952019859       -3.2789372603
 H        -9.1408913181        1.1855837976       -4.2749660907
 H       -10.6707705933        0.6613398692       -3.6689566597
 H       -10.1399553901        0.0951000369       -5.2963659202
 H        -8.5654750727       -1.0331340316        4.9498064590
 H        -7.2442533353       -0.9564809842        3.9416740190
 H        -8.3873204330       -2.1677169564        3.5590201407
 H       -10.2972532147        0.6285667136        4.5209062514
 H       -11.1255317374       -0.4139432003        3.2369613619
 H       -10.7306506958        1.2329490105        2.9683638340
 H        -5.7774931175        5.2499753239        0.2743944469
 H        -6.8913196110        6.6468229524        0.8100141743
 H        -7.2119306204        5.5856996047       -0.6301356697
 H        -8.5842322169        6.4591793326        2.4228415654
 H        -7.1575062941        5.6740441147        2.8871719596
 H        -8.8106714999        4.8581914976        3.2582236199
 H       -12.4551609185        6.9777596389       -3.0024520234
 H       -14.0986266493        7.3105354488       -2.6063396335
 H       -13.3443200616        5.7201393837       -2.2862102070
 H       -13.5596719608        9.2051742634       -1.5967961924
 H       -11.8332249666        9.0477838177       -1.6749906841
 H       -12.5592373884        9.3336981299        0.0158732110
 H       -14.5037481641        7.2098961273        6.1147004555
 H       -15.1669806429        5.6920802461        5.8608996243
 H       -16.0830905517        7.0838917513        6.5703483508
 H       -17.4572998930        5.5747750475        4.9858024527
 H       -16.5364717858        5.4027211209        3.5632129980
 H       -17.9916664412        6.2407296768        3.4939192641
 Na       -7.5245906063        2.8269389666       -1.4838928217
