117

 C       -18.7150300070        8.4589181814        5.1991883801
 C       -17.1839754629        8.6066948431        4.7168059256
 O       -16.6216305945        9.6292683477        4.7950561321
 C       -16.2786673491        7.3457563229        4.5792462918
 C       -15.1404208654        7.7651216894        3.4994138216
 O       -13.9975616372        8.1504914479        3.7355439041
 C       -15.4670211977        7.5127072065        2.0637097211
 C       -14.3481249360        8.0578651011        1.1255495534
 C       -14.3598593985        7.1860605241       -0.1335709081
 O       -15.2497427814        6.4810746712       -0.4820179548
 C       -13.0402353812        7.3846844665       -1.0810108165
 C       -11.6808012507        6.6891427882       -0.2732881951
 O       -10.7618569031        7.3485529905        0.1711435346
 C       -11.5797694143        5.1466145940       -0.2212228131
 C       -10.5713556697        4.8271065099        0.8495668572
 C        -9.0554692780        4.5989761621        0.3437403271
 O        -9.0031324046        4.0021408225       -0.7016293351
 C        -7.8562229553        4.8190329035        1.3698395207
 C        -7.1284239991        3.4200956110        1.6843249247
 O        -6.8463914328        2.6839357996        0.7838512596
 C        -6.7278197416        3.1512342365        3.0909256199
 C        -6.9106998615        1.6466564050        3.2583466369
 C        -8.3028269865        1.1847809711        2.7706948888
 O        -8.9042734547        2.0459402123        2.0909441495
 C        -9.0258299048       -0.1229892432        3.0181132998
 C        -9.2838322964       -0.9886200706        1.5952042565
 O       -10.2364591541       -1.7105704792        1.4933175252
 C        -8.3707189671       -0.7330103094        0.3296066516
 C        -9.2731640381       -0.9536767131       -0.8690142716
 C        -8.6779784771       -0.2817606329       -2.1526485234
 O        -7.7545828248        0.4617771808       -1.9253927761
 C        -8.9638971274       -0.6865162121       -3.6551754597
 C        -7.6691173715       -0.7721448417       -4.5778636699
 O        -6.9088276747       -1.6890202044       -4.5295452837
 C        -7.3471285378        0.3867899096       -5.5284352092
 C        -6.0096271787        1.1259380696       -5.5190897801
 C        -6.1706330300        2.2047906282       -4.5430866087
 O        -7.1927930381        2.5643545252       -4.0362491620
 C        -4.8452150063        3.0593951110       -4.2431518882
 C        -5.2423337775        4.3877850789       -3.4631447742
 O        -5.9291393961        4.2557786311       -2.4845520313
 C        -5.1983596147        5.9597657749       -4.0091462887
 C        -3.9979913425        2.0830948289       -3.3417966010
 C        -4.2020079015        3.5089633975       -5.5070674730
 C        -9.6171445214       -2.1281244654       -3.7407538141
 C       -10.0634360211        0.3870224735       -4.1323580960
 C        -8.2495335127       -1.0273119862        3.9724105926
 C       -10.4950102915        0.2695367953        3.4939652986
 C        -6.8906309164        5.6628414565        0.5099038639
 C        -8.2588417751        5.3723531262        2.7934456439
 C       -13.2843004374        6.7890817851       -2.3869349233
 C       -12.6297423839        8.9400414843       -1.0268410076
 C       -15.5346566736        7.2226427884        5.8742036250
 C       -17.0388988183        6.0048536146        4.2062274638
 H       -18.6451991880        7.5861941719        5.8706873254
 H       -19.3468895155        8.3437675573        4.3703711429
 H       -18.9341347817        9.3910543937        5.7142489492
 H       -16.3122710048        8.0341323978        1.8016914458
 H       -15.5816241878        6.4523113223        1.8300702092
 H       -13.3780361792        7.9454714870        1.4958233396
 H       -14.6422530505        9.0569344432        0.7502950870
 H       -11.4703097222        4.6937849591       -1.2170828823
 H       -12.5672476354        4.8508747093        0.1213670937
 H       -10.6870235700        3.8674536509        1.4334082712
 H       -10.6895481813        5.6432013446        1.6016847946
 H        -7.1912069428        3.8299795344        3.8484913634
 H        -5.6908289405        3.3907007955        3.0392626729
 H        -6.7403322084        1.3138719834        4.2986516319
 H        -6.1889421978        1.1612683850        2.5528656308
 H        -7.5246685110       -1.3663746136        0.3408001247
 H        -7.9592986637        0.2420633712        0.4071316554
 H       -10.3030331047       -0.7264667006       -0.7041381408
 H        -9.3059856200       -2.0269085485       -0.9720695457
 H        -8.1459907689        1.0752262237       -5.2912968530
 H        -7.4208092920       -0.0816189682       -6.5381422774
 H        -5.7696458891        1.5524630100       -6.5739445596
 H        -5.0945153190        0.5907913930       -5.1985648626
 H        -5.9466616145        6.4324943665       -3.3062294782
 H        -5.4325549433        6.1009272616       -5.0517730001
 H        -4.2027502621        6.3507736652       -3.7772605380
 H        -2.9844291154        2.4544195185       -3.2188451844
 H        -3.9991269900        1.1042434488       -3.6598910851
 H        -4.3683505631        2.0885233399       -2.2675166101
 H        -3.6680343037        4.4634402340       -5.3997681046
 H        -4.9998047092        4.0062041636       -6.1345204178
 H        -3.7425216394        2.6787463976       -6.0332166433
 H        -8.9511222118       -2.8038546290       -3.2602936686
 H        -9.7299953971       -2.4390731296       -4.7734364152
 H       -10.6098024459       -2.0922655955       -3.3061182441
 H        -9.7668548840        1.4528753994       -4.0498407017
 H       -11.0093690676        0.1743332118       -3.6511581829
 H       -10.2602691528        0.0702801554       -5.1871157862
 H        -8.6133482551       -0.9356159911        4.9616192971
 H        -7.1725059698       -0.9019082447        4.0676352961
 H        -8.3351354985       -2.0322569674        3.6155662216
 H       -10.5069776131        0.8197043538        4.3641566422
 H       -11.1253110194       -0.6289169098        3.4555400095
 H       -10.9305378798        0.9821895528        2.7499803501
 H        -5.8588066898        5.2602446789        0.5757974359
 H        -6.8994251613        6.7316135862        0.8471028414
 H        -7.0957874751        5.4827380591       -0.5847739186
 H        -8.8080127513        6.3416874897        2.6846494184
 H        -7.3733750916        5.5030223078        3.2459854739
 H        -8.8755208379        4.6046375523        3.1791920698
 H       -12.7827652571        7.0732885203       -3.3217969857
 H       -14.3707968488        7.0411224653       -2.4666960114
 H       -13.1926768572        5.7210965853       -2.2897731689
 H       -13.4443709047        9.5577890628       -1.4009275631
 H       -11.8434829170        9.0287328954       -1.8009406696
 H       -12.2972568250        9.1480117541        0.0234532700
 H       -14.5981685564        7.8590076215        5.9807564188
 H       -14.9875190351        6.2022977902        5.8904464662
 H       -16.1070410998        7.4985444510        6.7816652257
 H       -17.3503089975        5.5129075649        5.1167443160
 H       -16.3669647118        5.3508015423        3.5942689527
 H       -17.8933671322        6.1168959284        3.5646717344
 Na       -7.4610100592        2.6927976887       -1.6871091102
