117

 C       -18.7855912822        8.7536901015        5.2145923695
 C       -17.2564492153        9.0023323091        4.6200239971
 O       -16.8998839789       10.0521528334        4.1729084061
 C       -16.1146331533        7.7989135566        4.7249722014
 C       -14.9250826051        8.1727761571        3.6468074569
 O       -13.8802765182        8.7201781025        3.9868285513
 C       -15.2716088590        7.8424850824        2.0629692529
 C       -14.0691534665        7.6729239067        1.1318266954
 C       -14.2294484974        6.9995299636       -0.3165432833
 O       -15.1154108931        6.2919652643       -0.5750209466
 C       -12.9667893606        7.4250800103       -1.2813966427
 C       -11.5914127034        6.7661454000       -0.7229049037
 O       -10.8205088416        7.4288991873       -0.0432698340
 C       -11.4681611289        5.2886663831       -0.6991522548
 C       -10.5814842703        4.6964536232        0.4563120908
 C        -9.0081135806        4.8509198449        0.1080043627
 O        -8.6708369193        4.5260688096       -0.9996899909
 C        -8.0175799985        4.9552400117        1.3412450699
 C        -7.2560260615        3.5504298721        1.5325296585
 O        -6.6496822723        3.1702010422        0.5746658151
 C        -6.8467973607        2.9655418891        2.8889367707
 C        -7.1277326171        1.4626973455        3.0295375179
 C        -8.6829264841        1.0705977033        2.7096324223
 O        -9.4013049349        1.7323480165        1.9932939306
 C        -9.2566978099       -0.3751431962        3.2300113379
 C        -9.5007955455       -1.3164366513        1.8880899984
 O       -10.1331435276       -2.3342775460        2.0194003453
 C        -8.6745873461       -0.9647554643        0.6488953854
 C        -9.2524537902       -1.2241479926       -0.7680141056
 C        -8.4172945950       -0.5981222787       -2.0342009992
 O        -7.4247593684        0.0629129849       -1.9385870147
 C        -9.0994740098       -0.6666348397       -3.3990168351
 C        -7.7555400906       -0.7392596140       -4.3565859356
 O        -6.8501258121       -1.4188551275       -3.9436446848
 C        -7.6935927145        0.2006168720       -5.6571383034
 C        -6.2278870400        0.7542414739       -5.6030699743
 C        -6.1569076289        1.9300949216       -4.5743278366
 O        -7.1192396751        2.2501824506       -3.9616914473
 C        -4.7656800808        2.9510986670       -4.3364243298
 C        -5.2878316804        4.1891329952       -3.5853458670
 O        -5.4344105314        4.0555468334       -2.3976863314
 C        -5.2622009089        5.6383237927       -4.0974709305
 C        -3.6689362721        2.4335280417       -3.5155792968
 C        -4.3499342119        3.5971659058       -5.7816313246
 C        -9.8028715583       -2.1027861048       -3.5082259499
 C       -10.0978288896        0.5988382535       -3.4108546660
 C        -8.2437507726       -1.1486467627        4.0821958483
 C       -10.6061213751       -0.0058497658        3.8579599045
 C        -6.8868237417        5.9356947693        0.8517932022
 C        -8.6277060388        5.4419258109        2.6231013741
 C       -13.3717296541        6.6791955335       -2.6001571066
 C       -12.8331019734        8.9176482803       -1.7050553850
 C       -15.4056542089        7.6508078369        6.0554955231
 C       -16.8496632818        6.4270609819        4.5853893075
 H       -18.8694227276        7.9924007541        6.0897417442
 H       -19.3163406886        8.5092497161        4.2950153643
 H       -19.0926198987        9.7693386827        5.5758928556
 H       -15.8928192875        8.6198677100        1.7596932051
 H       -15.7436218874        6.8372854563        1.9598261443
 H       -13.3953263338        6.9021730528        1.5976938013
 H       -13.4620615625        8.6540474768        0.9542211275
 H       -11.2610428763        4.7210158138       -1.6048406890
 H       -12.4759857568        4.9258285475       -0.4219389415
 H       -10.8895108078        3.6573075129        0.4303993283
 H       -10.8376794545        4.9529103775        1.4984937089
 H        -7.2497435469        3.5554935164        3.6629746378
 H        -5.7255266483        2.9170591695        3.0079859850
 H        -6.5847141164        1.3361571939        3.9657849376
 H        -6.6183774259        0.8607080172        2.2708138803
 H        -7.7874388650       -1.6154091086        0.9369620777
 H        -8.2630374827        0.0628007863        0.7062492267
 H       -10.3318767304       -0.9554986989       -0.9318833309
 H        -9.2601606318       -2.3215386287       -0.8036512107
 H        -8.4882035106        0.9993947213       -5.5940659254
 H        -7.8824591699       -0.3633206638       -6.5134139934
 H        -5.8352273557        1.0991090278       -6.5120855340
 H        -5.5950461116       -0.0590193953       -5.2490093701
 H        -5.6226322123        6.2092663900       -3.2631241098
 H        -5.8765848509        5.8394477882       -4.9335374478
 H        -4.1767592653        5.8011815576       -4.2720501351
 H        -3.0901567205        3.2737877113       -3.0211966950
 H        -3.0986282690        1.6742678764       -4.0410000426
 H        -4.0841287049        1.7482635550       -2.7218215509
 H        -3.3514361891        4.0991686645       -5.6951638882
 H        -5.1423458772        4.3985999910       -6.0557047096
 H        -4.1995394723        2.8074130656       -6.4643272678
 H        -9.1081845241       -2.9788525022       -3.5574255255
 H       -10.3570819212       -2.1795473659       -4.4394582877
 H       -10.6099632226       -2.0646149336       -2.6691011085
 H        -9.4883158287        1.4770755087       -3.2323774764
 H       -10.8529192945        0.4853128803       -2.7199252665
 H       -10.6396093620        0.5746262303       -4.3540837738
 H        -7.6998492569       -0.4699545630        4.7582162752
 H        -7.6510015167       -1.9578200282        3.6215809927
 H        -8.8525790805       -1.7867548267        4.7424964785
 H       -10.5011945366        0.6270921798        4.6801716663
 H       -11.0569844708       -0.9884959237        4.1476980018
 H       -11.2885413496        0.5555891014        3.1710119424
 H        -6.5349635810        6.6842261877        1.5751613207
 H        -7.2560458373        6.4463933679       -0.0283807276
 H        -6.0690108863        5.3423181434        0.3538143403
 H        -9.0243890100        6.4940658884        2.4416403920
 H        -7.8099800961        5.3095549408        3.2948128064
 H        -9.4613508639        4.7548790965        2.9295637973
 H       -12.5837540333        6.7215241185       -3.2842766901
 H       -14.2610007443        7.0794593033       -3.1172071645
 H       -13.4269360408        5.6454294890       -2.3595249000
 H       -13.7838923691        9.2486737505       -2.1530388689
 H       -12.0436313676        9.0073868097       -2.3861352768
 H       -12.6493758577        9.3643466752       -0.7414457802
 H       -15.1517194806        8.5484283224        6.4939472595
 H       -14.4913315373        7.1391981631        6.0624948080
 H       -16.1191757674        7.2973368315        6.6879701366
 H       -17.7277046891        6.2538405464        5.1339180760
 H       -16.1033837164        5.6753013022        4.8345210090
 H       -17.0070089529        6.2404022219        3.5107534222
 Na       -7.1900533514        2.5040195651       -1.4125816788
