117

 C       -18.6414258044        8.9971509980        5.1805190784
 C       -17.2580142570        9.1033642870        4.6525890187
 O       -17.1704088193       10.0486360582        3.9402095597
 C       -16.0559312407        7.9806075510        4.7128139344
 C       -14.8993876339        8.2823053281        3.6131870516
 O       -13.8834591320        8.7575776129        3.9967405363
 C       -15.0660091205        7.8398126197        2.1013913633
 C       -13.8232634416        7.5866194583        1.2129841447
 C       -14.0924337369        7.0831645025       -0.1999724424
 O       -15.0049317108        6.3086237150       -0.5558513928
 C       -12.9538637133        7.3644014300       -1.2927006215
 C       -11.6966121216        6.8158091633       -0.6004107163
 O       -10.8468634579        7.5814804825       -0.1819249209
 C       -11.4958459656        5.2665070198       -0.8625849555
 C       -10.5192851209        4.7163794975        0.2096518836
 C        -9.0164648963        4.6842050536       -0.0238384197
 O        -8.4288570596        4.5497981180       -1.0715202754
 C        -8.0299379058        5.0176435446        1.2334845059
 C        -7.2038168888        3.7190282394        1.4590496209
 O        -6.6465109927        3.1027819271        0.5969206452
 C        -7.0851348463        3.0629510300        2.8822798849
 C        -7.3314779702        1.4797673180        2.8656686388
 C        -8.7873799075        0.9729315968        2.6728888978
 O        -9.6475852844        1.6971074170        2.0844861518
 C        -9.3062726576       -0.4462550977        3.2396906729
 C        -9.4974119256       -1.4174849380        1.9918353415
 O       -10.0954320688       -2.4650285290        2.0611224130
 C        -8.6008654300       -1.0690836529        0.7212837626
 C        -9.1482162210       -1.3513793873       -0.6563539289
 C        -8.4655555897       -0.6578563008       -1.7938837451
 O        -7.4627365691        0.0719904462       -1.7164119367
 C        -9.0747846383       -0.7494581285       -3.2191994388
 C        -7.7713870259       -0.7444129930       -4.1629470461
 O        -6.7347888500       -1.3502948783       -3.9903991087
 C        -7.6561523763        0.1403421315       -5.3980214788
 C        -6.2342064806        0.9363487828       -5.6397335189
 C        -6.1430608643        1.9719233348       -4.5575672379
 O        -7.0822872251        2.1439880516       -3.8017851410
 C        -4.9112448499        2.8962516859       -4.4636073203
 C        -5.1453674371        4.1730324262       -3.4927051635
 O        -5.3881856696        4.0286189957       -2.3048850023
 C        -5.2736522130        5.6311281103       -4.1929477194
 C        -3.6441715271        2.1881741609       -3.6766507494
 C        -4.5903609877        3.3881995227       -5.9537352445
 C       -10.0267793701       -1.9257601080       -3.5633851961
 C        -9.8768860792        0.4844493969       -3.3054105344
 C        -8.3092583265       -1.2081012335        4.1046065670
 C       -10.5938927861       -0.0730128823        4.0249366401
 C        -6.9790685785        6.1337275387        0.7849727862
 C        -8.7862005080        5.3010810134        2.6645952451
 C       -13.3654318993        6.4243658225       -2.6856319861
 C       -12.9552025122        8.8726224802       -1.7361744762
 C       -15.2743005338        7.9786999272        6.0696681972
 C       -16.7455478406        6.6262605502        4.4301461816
 H       -18.7120825549        8.5406406109        6.2238605218
 H       -19.0277177170        8.3053585740        4.3525135679
 H       -19.0467251053        9.9129272156        5.0997149924
 H       -15.5356091783        8.6754588863        1.7178443608
 H       -15.6747529118        6.9960680581        1.9860925213
 H       -13.1506865856        6.8033542214        1.6144748494
 H       -13.2101727912        8.5562243762        1.0793007069
 H       -11.1773716889        5.0683149100       -1.8992454375
 H       -12.3761952802        4.6626790323       -0.7707404025
 H       -10.9353081429        3.6807560688        0.4742209494
 H       -10.6531754585        5.1943128422        1.2181709149
 H        -7.6273304712        3.6696503482        3.7007862329
 H        -6.0614971163        3.0395258099        3.1392848624
 H        -6.7790210504        1.2103115694        3.7535630241
 H        -6.7793010696        1.0085182243        2.0069439125
 H        -7.6489835377       -1.4373722515        1.0344969128
 H        -8.4976039473       -0.0017893559        0.6686652196
 H       -10.1451714066       -0.9575074721       -0.7193809762
 H        -9.2553170805       -2.4173734610       -0.8340819749
 H        -8.4657932758        0.8031430578       -5.4751023598
 H        -7.9176949719       -0.6200004735       -6.2033957414
 H        -6.1398166953        1.4531614056       -6.6659700584
 H        -5.3920649430        0.2989634187       -5.5139547732
 H        -5.4794105907        6.4855836777       -3.4371931147
 H        -6.1349019314        5.5794438205       -4.8317919551
 H        -4.3744505411        5.7454749189       -4.7105611577
 H        -2.9138783992        2.9513857524       -3.2884622324
 H        -3.2630962751        1.3951246580       -4.2959788902
 H        -4.0619731583        1.4892752602       -2.8421736057
 H        -3.8170529007        4.2395924016       -5.9032597985
 H        -5.5233729017        3.6968497703       -6.5045985039
 H        -3.9306863393        2.5051036207       -6.3724865209
 H        -9.5784584888       -2.9369971208       -3.4330585265
 H       -10.3564911283       -1.9443904066       -4.6330882477
 H       -10.8700409113       -1.7365168872       -2.9435113294
 H        -9.2222324099        1.2908128586       -3.5020978867
 H       -10.4270211447        0.6588887569       -2.4002625715
 H       -10.6290042319        0.3063875097       -4.0453248020
 H        -7.7796392972       -0.6315282985        4.8412587536
 H        -7.7286875553       -1.9667358185        3.5963825567
 H        -8.9730493352       -1.8757054476        4.6606269781
 H       -10.3546714125        0.2692927153        5.0143649009
 H       -11.1999568582       -0.9686646940        4.1179222118
 H       -11.1535253927        0.7503507660        3.5502763379
 H        -6.8941144782        6.8539823645        1.5870770682
 H        -7.2679904469        6.6607798023       -0.2094048497
 H        -6.0012141113        5.7215420253        0.4384113099
 H        -9.4665898730        6.1994685654        2.6674328494
 H        -7.9945271610        5.3238564133        3.3549307605
 H        -9.3325506205        4.4054572640        2.8681806332
 H       -12.5380652414        6.2130718405       -3.3535216755
 H       -14.0260184148        7.0149179045       -3.2534286754
 H       -13.7952111196        5.5222943838       -2.4422838024
 H       -13.8360889794        9.2210245511       -2.2322115103
 H       -11.9769729701        8.9839162775       -2.2899503884
 H       -12.7995364245        9.2233393124       -0.7038748806
 H       -14.9278309969        8.9594663719        6.3420130300
 H       -14.4396070130        7.3530937483        6.2096790279
 H       -16.0022816265        7.7852410082        6.7947082315
 H       -17.5448139581        6.4642754368        5.1488787115
 H       -16.0730686053        5.8047114241        4.6358866305
 H       -17.1338382955        6.5389409642        3.4800365225
 Na       -7.1353710591        2.5242545356       -1.4347716607
