117

 C       -18.2222839900        9.1020971859        5.2384755968
 C       -17.0496699400        9.3225801097        4.2340640384
 O       -17.1819555687       10.1851611076        3.3818668084
 C       -15.9671778385        8.2860246401        4.4886382710
 C       -14.7791757313        8.4825381916        3.4479304804
 O       -13.6834127743        8.8752772762        3.7993466973
 C       -15.0017446220        7.9658160386        2.0547984472
 C       -13.6129267178        7.6055001155        1.3770405135
 C       -14.0252995300        6.9106827986       -0.0648108187
 O       -15.0801925844        6.3858300014       -0.0767097372
 C       -12.9685460314        7.2188374112       -1.3360809189
 C       -11.5072881173        6.7855067606       -0.8409623344
 O       -10.7971300324        7.5945928005       -0.2859713816
 C       -11.0591389653        5.3349664051       -1.2367254970
 C       -10.4848027091        4.5688127555       -0.0389065237
 C        -8.9766471617        4.6377060377       -0.0957706886
 O        -8.4175322991        4.4175542463       -1.1538164183
 C        -8.1025414439        5.0698354421        1.2184945431
 C        -7.3250583136        3.6344073297        1.5533608745
 O        -6.5807264611        3.0727314931        0.7695204774
 C        -7.5171040927        2.9112291666        2.8842827412
 C        -7.5659159310        1.4012129096        2.7461957678
 C        -9.0280372448        0.9532896742        2.8221447092
 O        -9.8139248444        1.6899345681        2.3366036176
 C        -9.3578046096       -0.5039091026        3.3078296179
 C        -9.4620561994       -1.4658576542        2.0955154843
 O       -10.1932278827       -2.4326790999        2.1261971432
 C        -8.4656993104       -1.3293341380        0.9275862087
 C        -9.0464518546       -1.7505404261       -0.4851035879
 C        -8.4737758930       -0.6793819222       -1.5446971671
 O        -7.7518823195        0.1567544314       -1.0954309129
 C        -8.8505011043       -0.6080342914       -2.9735217351
 C        -7.6734160464       -0.7518108713       -4.0085127874
 O        -6.7267340784       -1.4574981091       -3.8246125334
 C        -7.7461314083        0.0168955450       -5.3557197137
 C        -6.6317751787        0.9222767594       -5.6237082696
 C        -6.2955479968        1.9472494316       -4.4364555753
 O        -7.0765236120        1.9855600975       -3.5199151930
 C        -5.0094916913        2.7619606606       -4.6619831168
 C        -5.1509652313        4.0481641664       -3.6463450402
 O        -5.2200994887        3.8928600912       -2.4650842459
 C        -5.2689615065        5.5367921591       -4.2466594084
 C        -3.8733714816        1.7556561837       -4.1245694474
 C        -4.6528118033        3.2159495451       -6.1095151564
 C        -9.7176853731       -1.7523753380       -3.4014481795
 C        -9.7185899241        0.8156970692       -3.2485224776
 C        -8.1647343915       -1.0660540491        4.2020361576
 C       -10.7290637419       -0.5441054709        4.0374209936
 C        -7.2263340501        6.3106625020        0.9158727071
 C        -9.0519280770        5.5179821031        2.3387618182
 C       -13.5762276986        6.3916767578       -2.6023762179
 C       -13.0177722764        8.7745928910       -1.6789731779
 C       -15.5314839600        8.6809546534        5.8163255690
 C       -16.5403435455        6.8409771583        4.3924571259
 H       -17.9281839649        9.3649035408        6.2857424166
 H       -18.5047784590        8.1134099864        5.2061722678
 H       -18.9513469958        9.8659594546        4.9095019686
 H       -15.6077786090        8.7150321030        1.4218557566
 H       -15.6256476367        7.0131079296        2.2332522253
 H       -13.0187830173        6.9841488060        2.0481230871
 H       -13.0105320202        8.4952728554        1.3704261731
 H       -10.4408790964        5.3595444127       -2.1403024480
 H       -11.9436949332        4.7693517367       -1.6221631123
 H       -10.8273547609        3.5776154440        0.2418890317
 H       -10.9034877338        5.1686076666        0.7903381184
 H        -8.3801510803        3.2742031461        3.3099773057
 H        -6.6559086900        3.5069882198        3.3609856641
 H        -6.9080932604        0.9873689171        3.5448495328
 H        -7.0075390968        1.1773363175        1.8389408596
 H        -7.5820182587       -1.9106879217        1.2852354624
 H        -8.1814186167       -0.2629490668        0.8128258971
 H       -10.1499284441       -1.7073441260       -0.5302649892
 H        -8.7638964931       -2.7836853494       -0.7273844118
 H        -8.7365728560        0.6143786015       -5.6063021734
 H        -7.8125616379       -0.7083214773       -6.1360445768
 H        -6.8896398660        1.4981482310       -6.4796632223
 H        -5.7402260690        0.2469518663       -5.9089066452
 H        -5.2723528427        6.1741114230       -3.4164136703
 H        -6.2954517985        5.6135553034       -4.6253257052
 H        -4.4243367316        5.7670077255       -4.9569754603
 H        -2.9833502518        2.1087578994       -4.6086298906
 H        -4.0631544386        0.7130322681       -4.3509502083
 H        -3.7133698940        1.7356827349       -3.0936962283
 H        -3.8588838030        3.9052388504       -5.9995805615
 H        -5.6120699850        3.6772415150       -6.3470796880
 H        -4.3055060623        2.5382521606       -6.7651140445
 H        -9.2675188522       -2.7205445779       -3.1325225962
 H        -9.7578825089       -1.7381122758       -4.4410972882
 H       -10.7474945633       -1.7641387361       -2.9329220211
 H        -9.0403304722        1.6644122209       -2.9869452093
 H       -10.4965734893        0.7934440999       -2.4709931871
 H       -10.1711900940        0.9079362306       -4.2706390654
 H        -8.2163025266       -0.6227942688        5.1968181234
 H        -7.2726260946       -0.7668290099        3.6796055867
 H        -8.1257481125       -2.1368603862        4.3496116645
 H       -10.6677327512       -0.3310189449        5.1058419235
 H       -11.1334937574       -1.5651922766        3.9708123048
 H       -11.3648708258        0.2052526196        3.5825443614
 H        -6.7335812062        6.6293934757        1.8680754279
 H        -7.6224541202        7.1014834713        0.3883246949
 H        -6.5270354666        5.9346728937        0.1611151881
 H        -9.3373608619        6.5628719916        2.1054470747
 H        -8.5033418729        5.6176861701        3.3025398779
 H        -9.9126141052        4.8637262513        2.5205109021
 H       -12.7653397137        6.1386901435       -3.2876347375
 H       -14.3287186100        7.0274109275       -3.1850752407
 H       -14.1159096299        5.4317498692       -2.2991208247
 H       -14.0973989026        8.8827410241       -1.9880816715
 H       -12.3638926138        8.8604545171       -2.5056187343
 H       -12.7328772793        9.3881276181       -0.8235630232
 H       -14.8116113993        9.5610507267        5.8865800664
 H       -14.9582430878        7.7483903793        6.2646638373
 H       -16.2928073338        8.7962139898        6.6171529947
 H       -16.7809730150        6.6307184022        5.4256055226
 H       -15.9244704168        5.9818207488        4.1213833736
 H       -17.5212062415        6.9008503901        3.7978824166
 Na       -6.9217098075        2.6352356130       -1.4560199347
