117

 C       -13.3874882288        1.7915670298      -10.4821728478
 C       -13.1006988421        0.3234848672      -10.0669960843
 O       -13.9929637780       -0.3924547962       -9.7632842238
 C       -11.5754872786       -0.2063076740      -10.1794708581
 C       -11.1192904459       -0.4291357475       -8.7039215885
 O       -11.0058809000       -1.5437956501       -8.2311050493
 C       -10.8884289381        0.8236902577       -7.8202128788
 C       -10.8563180685        0.5777140178       -6.3128126275
 C       -10.3872926881        1.7549328165       -5.5609817917
 O       -10.1164074350        2.8146340589       -6.0892751597
 C       -10.3804040451        1.5451585330       -3.9026441350
 C        -9.8618057734        2.8183885860       -3.2504980301
 O        -8.7594507543        2.9432234520       -2.7832065724
 C       -10.8923318518        3.9754762755       -3.1017463221
 C       -10.2492503956        5.3012444394       -2.7377417414
 C        -9.7429533942        5.3991576077       -1.2338137989
 O        -9.8431684439        4.5505013914       -0.3923028421
 C        -9.2236787007        6.9097211899       -0.8553323744
 C       -10.0514984187        7.4951452100        0.3147473313
 O       -10.3936615344        6.6454672551        1.1617193928
 C       -10.5805685945        8.9111255302        0.5981834432
 C       -11.2659475894        8.9900643046        1.9679595618
 C       -10.5942891466        8.1567973335        3.0853830115
 O        -9.3952453824        8.1547540590        3.2325357127
 C       -11.4370443015        7.3586418100        4.2261757759
 C       -10.4598412123        6.3835024823        4.9480190037
 O       -10.0663541093        5.4615325814        4.2105969155
 C        -9.9499442705        6.5976692538        6.3193592284
 C        -9.0364710535        5.4736296917        6.8769800263
 C        -9.6250700134        4.0415263942        7.1394638772
 O       -10.8105347836        3.9085084674        6.8749982313
 C        -8.6058370037        2.8784577690        7.6110123010
 C        -7.9382438753        2.2854824310        6.3467443011
 O        -6.8694259314        2.7542222977        5.8926644213
 C        -8.7962258375        1.2332453824        5.6265527667
 C        -8.2095361387        0.7359001382        4.2708208412
 C        -8.2315097920        1.8823881995        3.3601666059
 O        -9.2148513380        2.5285056191        3.0564332876
 C        -6.8579297456        2.2259171269        2.5987937386
 C        -6.5063585900        3.6866018366        3.0175032169
 O        -7.2146793546        4.6821121622        2.8068710413
 C        -5.2345379639        3.8796873396        3.7677951375
 C        -5.6691065013        1.2174045820        2.8179972118
 C        -7.2381856097        2.1361841246        1.0899678281
 C        -7.6003538129        3.3663073896        8.5498286687
 C        -9.5412920746        1.8056883271        8.2674164599
 C       -11.9799463991        8.5234931316        5.1512021562
 C       -12.5590058638        6.5306337029        3.4327098460
 C        -7.7178689642        6.8376341170       -0.3726685351
 C        -9.2450442518        7.9971421640       -1.9743089140
 C       -11.8749588158        1.2970646265       -3.5662668959
 C        -9.5596100577        0.2697018167       -3.4757442770
 C       -11.6868248955       -1.5647061053      -10.8858924978
 C       -10.5509116214        0.6860280959      -10.9155704769
 H       -14.4472373111        1.8042257698      -10.4768780334
 H       -12.9561193579        1.9018365752      -11.4371301893
 H       -12.8384770857        2.4568701606       -9.8126321273
 H       -11.6055278564        1.5987139557       -8.0448960535
 H        -9.9315527244        1.3165927407       -8.0238827452
 H       -10.1778533244       -0.2208694418       -6.1631013484
 H       -11.7461272237        0.0751631535       -5.9154021271
 H       -11.6385499747        3.7397863225       -2.3273003127
 H       -11.3514307429        4.0892920961       -4.0276366014
 H       -11.0887067320        6.0338489905       -2.7957764655
 H        -9.4024247972        5.4563052284       -3.3764696319
 H       -11.3003080000        9.1972358146       -0.1912186710
 H        -9.8451797669        9.7341023126        0.5019551249
 H       -12.2891322065        8.6842291700        1.9544112333
 H       -11.2024969689       10.0132375213        2.2559050235
 H       -10.7311086520        6.7171734120        7.0458462855
 H        -9.4567212104        7.5584803019        6.3665010596
 H        -8.5494693046        5.8157341349        7.7487235104
 H        -8.2063870161        5.3103614766        6.2282375966
 H        -9.7143428549        1.8036815947        5.4109989357
 H        -8.9536099177        0.4841071331        6.4475190646
 H        -8.8136821772        0.1192788477        3.7233573970
 H        -7.2738971840        0.2707051742        4.3565231206
 H        -5.2731331583        4.8592554347        4.1311421270
 H        -4.4989554035        3.7266973918        2.9331021760
 H        -5.0399406408        3.0996868573        4.5337130869
 H        -6.0513466252        0.2024112527        2.5287742735
 H        -5.5209158305        1.1370669687        3.8882805781
 H        -4.8352562358        1.5211349011        2.2817582113
 H        -6.2887421296        2.0111003884        0.5053819850
 H        -7.9271167722        2.8211242864        0.7174292938
 H        -7.7216499597        1.1740366381        0.8712743648
 H        -6.9488311148        4.0705271182        8.1132528179
 H        -7.0342954117        2.5974760357        9.0342422587
 H        -8.0565247089        4.0476451443        9.3151792015
 H        -8.9778321396        0.8812153770        8.5574131465
 H       -10.4004493971        1.4136198349        7.6453820516
 H       -10.0560297717        2.1513289153        9.2313442947
 H       -12.5781235109        9.2432668740        4.5690200160
 H       -11.2167849423        9.1013241593        5.6049261850
 H       -12.5699768016        8.0291737715        5.9537462246
 H       -12.0329645578        5.8552165480        2.8169320413
 H       -13.1717111243        7.0894128683        2.7415941229
 H       -13.2491616858        6.0285629885        4.0845206241
 H        -7.3137113430        7.8049431655       -0.1263616317
 H        -7.1281425587        6.2711842499       -1.0913570003
 H        -7.6740561049        6.0447667115        0.4885399852
 H        -8.6209548317        7.8740976283       -2.8499407584
 H        -9.1915192976        9.0217991947       -1.5542397172
 H       -10.2023808867        7.9793396395       -2.5072802405
 H       -12.2357971592        0.3096309848       -3.7294299850
 H       -12.6025012272        1.9608462374       -4.0106078996
 H       -11.9617757370        1.5296945144       -2.4742398290
 H        -9.7147714249       -0.6953825991       -3.9557305357
 H        -9.8867617443        0.2238977718       -2.4619851180
 H        -8.5381460416        0.5225461609       -3.3523418180
 H       -12.7588313966       -1.8931018327      -11.1382407481
 H       -11.0995482400       -2.2985107932      -10.3703317286
 H       -11.1334041281       -1.5388510091      -11.8224797081
 H       -10.6426014071        1.7493891848      -10.7864740691
 H       -10.5054781123        0.6810070440      -11.9833133444
 H        -9.4746956374        0.6523545834      -10.6792304942
 Na       -9.3205852936        4.5959790182        1.9625985468
