117

 C       -18.3676393238        9.6909900592        4.9523013141
 C       -17.0656534053        9.5032955326        4.0441725456
 O       -17.0474635677        9.9756937918        2.9244441398
 C       -15.8453930710        8.6043763965        4.4562679644
 C       -14.6857805316        8.7435062666        3.4362473132
 O       -13.5421444656        9.0352336573        3.7446481708
 C       -14.9327442903        8.2173783185        1.9899267258
 C       -13.6925888180        7.7527291526        1.2413672191
 C       -13.9543365468        6.8890642278        0.0591378074
 O       -14.9034302024        6.1622557568       -0.1515403869
 C       -13.0236544513        7.1617452806       -1.4667210693
 C       -11.5872936964        6.7213487162       -1.0790746082
 O       -10.8974118850        7.3975728668       -0.3042126336
 C       -11.0482854945        5.3064295514       -1.6778262508
 C       -10.5779406599        4.5067681561       -0.4191317497
 C        -9.0861068447        4.6322143093       -0.1153794355
 O        -8.3678900127        4.2932507607       -1.0633207743
 C        -8.3160043624        4.9931163247        1.1956878693
 C        -7.5720401844        3.7466225697        1.6662225318
 O        -6.5693143525        3.3722302468        1.0379069580
 C        -7.7692642623        3.0812059677        3.0988107363
 C        -7.7442465020        1.5556036888        3.0031320893
 C        -9.1215022853        0.8474070020        2.9161658418
 O       -10.1494522292        1.4947739658        2.6383897019
 C        -9.2923304798       -0.7088740029        3.2579276766
 C        -9.4870768649       -1.6774315745        2.0540919313
 O       -10.4029142274       -2.4490548886        1.9933098220
 C        -8.2722136497       -1.6526658672        1.0452252934
 C        -8.6405007811       -1.6282308564       -0.3814820191
 C        -8.2511966095       -0.4610598368       -1.2802344392
 O        -7.8180863655        0.6260229281       -0.8331248266
 C        -8.9198229172       -0.5116758608       -2.8081556252
 C        -7.7023224296       -0.6448870187       -3.9016199010
 O        -6.7547595095       -1.2239635736       -3.3822884318
 C        -7.8755146066       -0.2030698833       -5.4146150507
 C        -6.7402151346        0.8522879325       -5.9127087072
 C        -6.4234015892        1.7705676724       -4.8366565510
 O        -7.0448743219        1.7743951611       -3.7708701097
 C        -5.0567735554        2.6676449443       -4.8255812416
 C        -5.1790971782        3.9079152701       -3.7472500599
 O        -5.0298796088        3.6486800876       -2.5466558134
 C        -5.1513376994        5.2810536317       -4.3126999373
 C        -3.9514573398        1.7628726481       -4.2958984906
 C        -4.7535006581        3.1462276549       -6.3394352463
 C        -9.7609599133       -1.7930586654       -3.1360738370
 C        -9.9159701461        0.7000006803       -2.9233970206
 C        -8.2802454705       -1.1881638795        4.3386906992
 C       -10.6297946047       -0.6988207249        4.1238064188
 C        -7.0861844439        5.8716143267        0.7464946059
 C        -9.1736921933        5.6716421068        2.3656552560
 C       -13.7381441358        6.3641880332       -2.4617483920
 C       -13.0268894517        8.8205902293       -1.5587206652
 C       -15.0986083405        8.9436758954        5.8202100513
 C       -16.2671856753        7.1023272706        4.5333967298
 H       -18.5384881921       10.6752874673        5.2678874537
 H       -18.2476687091        8.9757419826        5.8102896899
 H       -19.1783266777        9.5153739536        4.1439474261
 H       -15.4410086181        8.9840748541        1.4426920491
 H       -15.5913390645        7.4060287597        2.0315927661
 H       -13.0959098970        7.2084404761        2.0368210955
 H       -12.9409059636        8.5451904124        1.0350627979
 H       -10.2438065085        5.4035181180       -2.4153244826
 H       -11.7972185839        4.7712002744       -2.2362380248
 H       -10.6309718400        3.4009454198       -0.4081223872
 H       -11.1941154819        4.8205567021        0.4142495386
 H        -8.7863156175        3.4205437436        3.5272094184
 H        -7.0247400963        3.6285166430        3.6331832651
 H        -7.2311416280        1.1842710352        3.8691182308
 H        -7.0162567892        1.2855866381        2.2219597905
 H        -7.9305156691       -2.7033126414        1.1706646655
 H        -7.4259940701       -0.9698440477        1.3042628014
 H        -9.7346299583       -1.7440845432       -0.5409030956
 H        -8.1339152623       -2.5247089376       -0.8428407063
 H        -8.7611030304        0.2994025505       -5.4701445938
 H        -8.0959680291       -1.0328223806       -6.1360866878
 H        -7.0655622358        1.4637672469       -6.7873937136
 H        -5.8670680899        0.3655012613       -6.1268531666
 H        -5.1873861774        6.0455210138       -3.5315397772
 H        -6.0244400200        5.3827729364       -4.9505261181
 H        -4.2007594363        5.2823452219       -4.7670219459
 H        -2.9582109308        1.8009266673       -4.8016345112
 H        -4.1547323837        0.6491244862       -4.1745078132
 H        -3.7927732279        2.1003171295       -3.2443728150
 H        -3.6775227822        2.9760770933       -6.3848295215
 H        -5.2763969525        4.0010941539       -6.7118856544
 H        -4.9952734004        2.3252295773       -7.1211026326
 H        -9.0840475738       -2.6980155475       -3.0877570356
 H       -10.3358046869       -1.7631122454       -4.1597063783
 H       -10.4416117938       -2.0587712213       -2.3297555940
 H        -9.6138875975        1.5669868097       -2.3768724368
 H       -10.9057600257        0.3752003790       -2.5450845794
 H        -9.9105664959        0.9038198259       -3.9766622557
 H        -8.0856676109       -0.3789551089        5.0723439401
 H        -7.3409334495       -1.4094400351        3.7908913682
 H        -8.6846052106       -2.0109718323        4.9716698494
 H       -10.5741123933        0.2055385012        4.7874758891
 H       -10.8256406301       -1.5215712683        4.7888006430
 H       -11.4226690773       -0.4836174010        3.4226187807
 H        -6.1521614864        5.7034408783        1.2723742949
 H        -7.3970918725        6.9435491064        0.9702536389
 H        -6.9181573243        5.9524591895       -0.3181304072
 H        -9.7493853118        6.5276233071        2.0601169266
 H        -8.5800532835        6.0442527253        3.2582554340
 H        -9.8604619230        4.8369448508        2.6782262713
 H       -13.4578437014        6.4966163816       -3.5388094007
 H       -14.7647776379        6.5654439227       -2.3138654994
 H       -13.6799535864        5.3229494356       -2.1692300564
 H       -13.9610086258        9.0608279513       -1.1783818414
 H       -12.8581825636        9.0887844854       -2.6157809427
 H       -12.1987009783        9.1858555820       -0.9935282981
 H       -14.9487804989        9.9485676155        5.8905859354
 H       -14.2706488453        8.4306068778        6.0166240843
 H       -15.7227025040        8.6495619800        6.6603188548
 H       -16.7761679365        6.8148794932        5.4910394724
 H       -15.2706628581        6.6513472268        4.7202202632
 H       -16.7143844390        6.6709265750        3.6742000713
 Na       -6.6264825177        2.6659517418       -1.1895593366
