117

 C       -17.9858069477       10.6720454479        4.3406946082
 C       -16.8020417920        9.9801379682        3.4496053877
 O       -17.1025389062        9.6377904810        2.3168050718
 C       -15.5043491289        9.4038249998        4.1867684826
 C       -14.3595195891        9.0677693214        3.1597431101
 O       -13.1969006924        9.2365961769        3.4736452819
 C       -14.6313003620        8.2611227707        1.8734625111
 C       -13.2415532209        7.7012644911        1.3984953083
 C       -13.6474699820        6.8636545585        0.1526081297
 O       -14.3724054218        5.9121800565        0.2168648146
 C       -13.0044223780        7.3133956028       -1.3158992453
 C       -11.6087788624        6.5627110676       -1.1287109905
 O       -10.7180319608        7.0277739941       -0.5152736912
 C       -11.5614851086        5.0535243986       -1.5342201256
 C       -10.8029093297        4.1429038939       -0.5310574218
 C        -9.3105372447        4.2542642999       -0.3977668617
 O        -8.5925982124        4.0215766881       -1.3608973357
 C        -8.5709547863        4.7547667564        0.9653388640
 C        -8.0799847519        3.4010646740        1.6511494342
 O        -7.2383003020        2.7355549921        1.1404137280
 C        -8.7315928658        3.0530460131        2.9788271852
 C        -8.5435101011        1.6615593544        3.6159499875
 C        -9.6460411418        0.6928484425        3.3020767060
 O       -10.5409676671        1.1476587750        2.6641260636
 C        -9.4171029514       -0.7981419293        3.5488047152
 C        -9.1199671464       -1.2794023866        2.0747230625
 O       -10.0589982386       -1.3960208101        1.2744174029
 C        -7.6930523170       -1.4868054414        1.5526617447
 C        -7.7427386709       -1.6588437429       -0.0919788282
 C        -8.3525706149       -0.4017258602       -0.8020161111
 O        -7.9800535280        0.6244273319       -0.3052326270
 C        -9.0683037002       -0.4534517366       -2.2056960200
 C        -7.8137968353       -0.3967676565       -3.1833737231
 O        -6.6560049453       -0.4344399229       -2.7511388463
 C        -8.0485338517       -0.3699416822       -4.6225847896
 C        -6.9086536053        0.3277848928       -5.3716905534
 C        -6.5453859762        1.6485754699       -4.6659891042
 O        -7.2664905484        2.1442805771       -3.8406619550
 C        -5.1222144488        2.2969534762       -5.0570970938
 C        -4.7900628856        3.5571575350       -4.1938662968
 O        -4.7496198122        3.4493288801       -3.0009525640
 C        -4.6307049400        5.0135497002       -4.8327546772
 C        -3.9591095895        1.3041044860       -4.7183244138
 C        -5.2386993370        2.5514997100       -6.5678856358
 C        -9.9221086089       -1.6460014575       -2.4292235178
 C       -10.0107446449        0.8180292236       -2.1420535717
 C        -8.0489217798       -1.1485535090        4.3014347528
 C       -10.6185399470       -1.4954159085        4.1886625601
 C        -7.2300952518        5.5290079789        0.5498857726
 C        -9.4186604645        5.7719185756        1.8681794466
 C       -13.8225308090        6.4484306988       -2.5403823107
 C       -12.9537490788        8.7867238274       -1.9140117921
 C       -14.9115377714       10.3452435411        5.2692417440
 C       -15.7633513914        7.9468363689        4.7759794770
 H       -18.8646449933        9.9392454799        4.1449318321
 H       -18.2482623647       11.6127167645        3.8340568958
 H       -17.7774815011       10.7319360266        5.2946411620
 H       -15.1374019220        8.7656297480        1.0896768553
 H       -15.3277752435        7.5245624802        2.1223065647
 H       -12.7361308468        7.1133202578        2.2352717930
 H       -12.5480775711        8.4802284763        1.1596246220
 H       -11.0023718938        5.1724400410       -2.4454402389
 H       -12.4219705758        4.4418507345       -1.7322532321
 H       -10.9615792317        3.1540232103       -1.0170015398
 H       -11.1637503155        3.9531516063        0.4971765167
 H        -9.7262241970        3.3949316865        2.8568258508
 H        -8.2435987318        3.8277771277        3.7046090425
 H        -8.5032433357        1.6304169961        4.7175214683
 H        -7.5430040664        1.3575464935        3.3229199357
 H        -7.1135188369       -2.2876771312        2.0291225723
 H        -7.1284371885       -0.5171692205        1.7398533753
 H        -8.4054093311       -2.5253997598       -0.2217577873
 H        -6.7459295673       -1.7175058181       -0.6217352099
 H        -8.9967397834       -0.0560865052       -5.1528591367
 H        -8.0662466318       -1.3912797769       -4.8663774983
 H        -7.3529049908        0.7175801931       -6.2439452153
 H        -6.0809064694       -0.3902342297       -5.6776697162
 H        -4.1570137277        5.5141327814       -4.0210629814
 H        -5.6161395465        5.3535440104       -5.0480251369
 H        -3.9608228091        5.0202677119       -5.6947095538
 H        -3.1249585713        1.6482347637       -4.0546671795
 H        -3.4157083371        1.2112983100       -5.6686434106
 H        -4.1906120601        0.3478031593       -4.2254581510
 H        -4.1941050556        2.8787446875       -6.8759988307
 H        -5.8699208037        3.5404895898       -6.8124364823
 H        -5.7471148665        1.7680732231       -7.0925002802
 H        -9.4813872647       -2.6950814394       -2.3573529068
 H       -10.5503550541       -1.5199459753       -3.2941003906
 H       -10.7643075772       -1.7836110029       -1.6431955843
 H        -9.4503273426        1.7323101962       -2.3960131890
 H       -10.4051440739        0.8197696345       -1.1113517744
 H       -10.7505269928        0.6736199485       -2.9219381323
 H        -8.2761202235       -1.1758546477        5.4025824902
 H        -7.2714939795       -0.3568707812        4.1690819360
 H        -7.7585251522       -2.1428182066        3.9119393093
 H       -10.3097277673       -1.5666303519        5.2340112405
 H       -10.7066836115       -2.5492178726        3.8695367203
 H       -11.6009090610       -1.0331015157        4.0747237906
 H        -7.2070208455        6.5997713590        0.2414739313
 H        -6.8103530843        5.0632032832       -0.2933152066
 H        -6.5464677867        5.5702301079        1.4464355320
 H        -9.5151222916        6.7865030856        1.4248946240
 H        -8.9182564897        5.8780285764        2.8312041748
 H       -10.4790851921        5.5693508905        2.1278981220
 H       -13.1619972178        5.8712962564       -3.1717384921
 H       -14.4078472759        7.1536568884       -3.1754363209
 H       -14.6057177333        5.7646154764       -2.0899509789
 H       -13.9585192491        9.2486105728       -2.0491150078
 H       -12.5001296921        8.5581869328       -2.8245757239
 H       -12.2078054443        9.2852946056       -1.3534733353
 H       -14.6047149483       11.2707439148        4.8920397189
 H       -14.0753001663        9.9565327520        5.8157262187
 H       -15.7034792443       10.5268911281        5.8546652462
 H       -16.4273097954        7.8821836443        5.6456742001
 H       -14.7676605508        7.5459616410        4.9070139707
 H       -16.2222416763        7.2893143668        3.9394890317
 Na       -6.6434779533        2.3739790923       -1.2632768422
