117

 C       -17.7124232061       10.9526986218        3.9701535504
 C       -16.6837277120       10.0937382755        3.1899291759
 O       -16.9534101425        9.4760396277        2.1584337445
 C       -15.4075647136        9.6666239827        4.2147055185
 C       -14.2554222526        9.1636506518        3.1495259566
 O       -13.1209379106        9.5842491937        3.3274147249
 C       -14.5624949008        8.3483221581        1.8354168100
 C       -13.3106341040        7.8443224717        1.2109584534
 C       -13.5776869408        6.8076290686        0.0747253720
 O       -14.2698317798        5.8117366377        0.0604646201
 C       -12.9574276459        6.9501765249       -1.3404408260
 C       -11.6028917894        6.2217159770       -1.3435671191
 O       -10.5236942901        6.8116719776       -1.0340374691
 C       -11.5061963024        4.7796351069       -1.5550203176
 C       -10.9061511114        4.0903083163       -0.3118567117
 C        -9.3541078151        4.1994064672       -0.4316596586
 O        -8.8956948879        3.9709951800       -1.5329968203
 C        -8.6063221070        4.6570569326        0.8543873626
 C        -8.3793380738        3.3870320107        1.7138135367
 O        -7.5540886900        2.5222790106        1.4058340188
 C        -9.0981127334        3.2053493021        3.0742211875
 C        -8.8065578334        1.8342293523        3.6110949552
 C        -9.7232119726        0.7040025375        3.3349783310
 O       -10.8759404395        1.0109993853        3.0606634959
 C        -9.2131252029       -0.7476338229        3.4327131390
 C        -8.9961079912       -1.3122730235        1.9819156420
 O        -9.8329416960       -1.0487023354        1.1772604050
 C        -7.6259205000       -1.7938430307        1.5192502811
 C        -7.5264767736       -1.7057800215       -0.0152362556
 C        -8.2183632179       -0.4560564933       -0.5647214127
 O        -7.8784661598        0.6179050406       -0.0692566420
 C        -9.0493390997       -0.5068012559       -1.8930415829
 C        -7.9011328872       -0.3951512912       -2.9437985819
 O        -6.7664464161       -0.2652584971       -2.5809219184
 C        -8.1657039993       -0.4178696395       -4.3833076203
 C        -7.0585589365        0.3016308431       -5.2702834140
 C        -6.5829232403        1.6139352375       -4.6692412297
 O        -7.2933799763        2.2270115800       -3.8920495304
 C        -5.1468144087        2.1750675319       -5.1026749302
 C        -4.8398359284        3.5052606038       -4.1863479312
 O        -5.0218001600        3.4247657293       -2.9774755316
 C        -4.2797959895        4.7684373515       -4.7898942267
 C        -4.0698229339        1.1331118252       -4.8040667341
 C        -5.1753030412        2.5603371775       -6.6353480515
 C        -9.8078104102       -1.8375739228       -1.9038963790
 C        -9.9658865040        0.7792008336       -2.0392207633
 C        -8.1385326139       -0.8807702054        4.4748323515
 C       -10.5162139864       -1.5343242665        3.9812266473
 C        -7.2119666917        5.1542163204        0.3994357685
 C        -9.3796104495        5.7186381024        1.6607446120
 C       -13.9777730530        6.5984982602       -2.4188850023
 C       -12.4226140335        8.5443033691       -1.3696492385
 C       -14.8071666669       10.8954501820        4.9971262804
 C       -15.8416485680        8.4531476661        5.0761035691
 H       -18.3167146239       10.1699708993        4.3949552491
 H       -18.3095147566       11.5427981465        3.3547174888
 H       -17.0949330411       11.5081125604        4.7779876063
 H       -15.0904780731        9.1137633364        1.1902299849
 H       -15.3391271418        7.5093313816        1.8520654492
 H       -12.7224521537        7.3441997872        1.9557522100
 H       -12.6828384371        8.6285301803        0.8338951426
 H       -11.1519195552        4.5800997713       -2.5849726604
 H       -12.5457861427        4.4545637961       -1.4498690426
 H       -11.1898989505        3.0394019877       -0.1293014091
 H       -11.2496274515        4.5675586120        0.5970668871
 H       -10.2200059079        3.3904802231        3.1014331211
 H        -8.6407695804        3.9576270140        3.6159761628
 H        -8.8763735326        1.6968137818        4.7226018147
 H        -7.7557206437        1.5848299895        3.3169125173
 H        -7.3658374417       -2.7944664672        1.8185926344
 H        -6.7420657532       -1.2939693212        1.7766651492
 H        -7.8936899917       -2.6134099880       -0.4343139164
 H        -6.5035218153       -1.4877727473       -0.1532146004
 H        -9.1071224816        0.0470866802       -4.6013481618
 H        -8.3664364545       -1.4477678929       -4.8839284236
 H        -7.2290371782        0.2717592311       -6.4267905880
 H        -6.2341235149       -0.3308334709       -5.0780167257
 H        -3.3165450554        5.0171232887       -4.3704493155
 H        -5.1508055478        5.3954675114       -4.4313386890
 H        -4.3423189834        4.7113606026       -5.8801553430
 H        -3.4800263328        1.5002247648       -3.9857418420
 H        -3.2817718712        0.9874331191       -5.5755588598
 H        -4.3922386189        0.2251382756       -4.3637049237
 H        -4.1275811648        2.6780348232       -6.8347365075
 H        -5.4707345820        3.4987820692       -6.9246500112
 H        -5.6911163740        1.7295385247       -7.2116641208
 H        -9.1487372992       -2.6639153859       -2.0945547049
 H       -10.6953963495       -2.0621089989       -2.5174647494
 H       -10.1846489601       -2.0260063604       -0.9634563297
 H        -9.5462823796        1.4446673599       -1.3258137721
 H       -10.9681514513        0.4584035838       -1.7243689694
 H        -9.9664914467        1.2983667373       -2.9755624772
 H        -8.0888286789       -0.0004177002        5.0500778356
 H        -7.1981814500       -0.9338054081        3.9499817463
 H        -8.3092105791       -1.8059438087        4.9876823711
 H       -10.7219266500       -1.2501516773        5.0468369482
 H       -10.4269105191       -2.5900453222        3.8804614914
 H       -11.3440291621       -1.2431049188        3.3683229506
 H        -6.9231719342        4.9424372133       -0.6661930236
 H        -6.3197622318        4.5593342832        0.7602469487
 H        -7.1104898036        6.2160489219        0.5234673002
 H        -9.9156511529        6.4267722493        1.1448408601
 H        -8.8199130941        6.2357727919        2.4471777353
 H       -10.1614864630        5.3058611497        2.2526774200
 H       -13.6339097664        7.0770431171       -3.3309287943
 H       -14.9452244240        6.8366568046       -2.1674513396
 H       -13.9988425433        5.5656664824       -2.5369127341
 H       -13.3221763065        9.0688290108       -1.1022598159
 H       -12.0881535589        8.8841254237       -2.4113782230
 H       -11.6073546302        8.5685718838       -0.6296137262
 H       -14.5753568964       11.8044013979        4.3663560109
 H       -13.7697174626       10.5860814846        5.2618567663
 H       -15.5338635694       11.3159155036        5.8147600738
 H       -16.2926629446        9.0304780542        5.8720933227
 H       -15.0781018437        7.8404217382        5.4891091806
 H       -16.6245172705        7.9254677192        4.6968069972
 Na       -6.8260247645        2.5575349453       -1.7286968250
