117

 C       -17.5438610452       11.1492765119        3.8172170222
 C       -16.5958776702       10.0419917450        3.2532330848
 O       -16.8981214497        9.5674097426        2.1510708888
 C       -15.3880779285        9.7847149902        4.0433442799
 C       -14.2313568129        9.2941282544        3.0805828653
 O       -13.1116687828        9.7534499844        3.3287070471
 C       -14.5261796857        8.3513099203        1.9430628915
 C       -13.3435434689        7.7155554917        1.2724306363
 C       -13.5617504613        6.7353712978        0.0207728736
 O       -14.2413265377        5.7803398609        0.1775206339
 C       -12.8896342520        7.0361061634       -1.3241134275
 C       -11.5929505200        6.1629462749       -1.4801074200
 O       -10.4808064043        6.5813689951       -1.4105485137
 C       -11.7784418335        4.5150080043       -1.5302811637
 C       -11.0433997828        3.9409856568       -0.3511128966
 C        -9.4456214678        4.1921360194       -0.4230265800
 O        -8.8757499009        3.7647704851       -1.4383505478
 C        -8.6768405038        4.6695297976        0.8099621228
 C        -8.4039232801        3.3565419935        1.7466033262
 O        -7.5347635354        2.6185629661        1.4084118542
 C        -9.2084907833        3.1677499900        3.0632417726
 C        -8.8277279290        1.9538250001        3.8585522901
 C        -9.8906449618        0.7334290223        3.4841160634
 O       -11.0110456297        1.0648812912        3.1685683717
 C        -9.3135684609       -0.7240276701        3.4614689032
 C        -8.9588686264       -1.1095311653        2.0007716259
 O        -9.8430581071       -0.9555724981        1.1667609135
 C        -7.6006168321       -1.8835804434        1.6197710404
 C        -7.3240184503       -1.7674240837       -0.0706353096
 C        -8.0960687866       -0.5044014376       -0.5294756314
 O        -7.7890179769        0.6056151847       -0.1811497995
 C        -8.9738867278       -0.6229366607       -1.7366431467
 C        -7.7591900433       -0.3205595511       -2.8540556087
 O        -6.6505942603       -0.1289412161       -2.4979940988
 C        -8.2598437079       -0.2259942933       -4.3157096831
 C        -7.0997165102        0.1993269491       -5.2580858834
 C        -6.6411424587        1.5712330354       -4.6391588414
 O        -7.4358819480        2.2066561852       -4.0489267689
 C        -5.1942427874        2.1483912331       -5.0430180995
 C        -4.9301792737        3.4326454008       -4.2109182569
 O        -5.2131759389        3.3778379332       -3.0591292046
 C        -4.0727932440        4.6628798310       -4.6834346641
 C        -4.0484846089        1.0862879880       -4.7760608848
 C        -5.2232052674        2.4020073315       -6.5734424779
 C        -9.8192439570       -1.9008924043       -1.7640467188
 C        -9.9119169803        0.6320590045       -1.9060741242
 C        -8.0352877004       -0.8879242024        4.5452385440
 C       -10.5475687085       -1.7439904385        3.8139999209
 C        -7.1321061558        5.0746748757        0.3921517854
 C        -9.2336623880        5.8940996972        1.5273016424
 C       -13.8409063089        6.7189037102       -2.4305479234
 C       -12.2121156556        8.6846498000       -1.3623530082
 C       -14.8479813662       10.9818326472        4.7188873590
 C       -15.8189150274        8.7917820602        5.1423563506
 H       -18.1551171175       10.6409031899        4.7102332406
 H       -18.2675902645       11.2755642273        2.9533135910
 H       -17.0413344893       11.9839998852        4.0598471150
 H       -15.1524951587        8.9419105992        1.1563478034
 H       -15.2499181600        7.5979677374        2.2020591479
 H       -12.7273229623        6.9896034036        2.0137895292
 H       -12.6487747527        8.4768067097        0.9578649698
 H       -11.1292921730        4.2005341564       -2.4055940693
 H       -12.7842955200        4.0703374116       -1.6737837923
 H       -10.9813733872        2.8697258140       -0.2999916602
 H       -11.3489054192        4.2046131924        0.6356556110
 H       -10.2389849979        2.8182097279        2.7656878692
 H        -9.3495578669        4.1203436950        3.5227193649
 H        -8.9152703646        2.0526881079        4.9206804720
 H        -7.8171844888        1.5578620526        3.5920071502
 H        -7.7079602789       -2.9318520311        1.9152167860
 H        -6.5835752785       -1.6489712490        2.0122655865
 H        -7.8297755802       -2.6136300741       -0.4806043647
 H        -6.2602627997       -1.5922397374       -0.3021958567
 H        -9.0307429284        0.4997360484       -4.4707742646
 H        -8.6955695912       -1.0878602410       -4.7548824537
 H        -7.5037355552        0.5133851328       -6.2280342373
 H        -6.4759105587       -0.6192455579       -5.4436295801
 H        -3.1724382030        4.4982991981       -4.1965520699
 H        -4.6618746538        5.5243581867       -4.2792871166
 H        -3.9790080775        4.6583897718       -5.7935797257
 H        -3.4076094794        1.3367602510       -3.9545779770
 H        -3.3576617414        0.9742059260       -5.6235720838
 H        -4.4620485073        0.1710489929       -4.5407030058
 H        -4.4858624490        3.0814194062       -6.8969378386
 H        -6.0789633762        2.9770557191       -6.9668267659
 H        -5.1657532882        1.4643304112       -6.9537536603
 H        -9.2779206215       -2.8216216045       -2.0133186711
 H       -10.6088396852       -2.0081859120       -2.4608285443
 H       -10.3726957419       -2.0395969277       -0.8439765636
 H        -9.7124568013        1.1661207518       -0.9717249719
 H       -10.9681814348        0.2592950583       -1.9481777188
 H        -9.7238045707        1.3368632008       -2.6912128616
 H        -7.9518711878        0.0296175861        5.0660230451
 H        -7.1707050802       -0.9350006859        3.9519435454
 H        -8.0409023333       -1.7519929787        5.1515270755
 H       -11.1867819494       -1.2789086274        4.6278468654
 H       -10.0869160966       -2.6243303526        4.2072216541
 H       -11.1438899332       -2.0587869981        3.0062483829
 H        -6.6356733912        4.3328571493       -0.2446207058
 H        -6.3789389835        5.0695650363        1.0855254045
 H        -7.1306894505        6.0293967653       -0.1553887562
 H        -9.7508421907        6.6021755485        0.8877323672
 H        -8.4876029285        6.4865770457        2.1127609538
 H       -10.0265021085        5.7838993555        2.2977000836
 H       -13.8330800334        7.4869088633       -3.1720155118
 H       -14.8217815378        6.5064617004       -2.0418998817
 H       -13.5652981801        5.7403315173       -2.8840518510
 H       -13.1337614206        9.2517950375       -1.1055394178
 H       -12.0624673620        8.9261139964       -2.4145931680
 H       -11.3469758433        8.7404510735       -0.7388263620
 H       -14.7729156092       11.9687304628        4.1410238951
 H       -13.7298103083       10.7599505964        4.9391683353
 H       -15.5092315383       11.2206456746        5.5133301927
 H       -16.4308740771        9.3749402176        5.8397757907
 H       -14.9349814267        8.6125793303        5.6863164091
 H       -16.4007990476        7.8550096293        4.8766214509
 Na       -7.0901842334        2.6028552413       -1.7633335650
