117

 C       -17.6665795189       11.4322007613        3.6397283415
 C       -16.6979658091       10.2084050148        3.1356886920
 O       -16.9260884258        9.6283728445        2.1371672056
 C       -15.2948798326        9.9791094622        4.0343057498
 C       -14.1069435511        9.3088736110        3.0637626166
 O       -12.9961522139        9.7370534267        3.1093455162
 C       -14.4680445955        8.2473196258        2.0076835851
 C       -13.1987354394        7.5395641596        1.5130671840
 C       -13.4833594302        6.7806199396        0.1444935218
 O       -14.1897232131        5.7846876197        0.2493887038
 C       -12.7678625226        7.1393556754       -1.3472804430
 C       -11.5128429379        6.0453428255       -1.4952869131
 O       -10.3790239563        6.2797210141       -1.7815557100
 C       -11.9618674273        4.5144090748       -1.4235650304
 C       -11.0805444839        3.8735758631       -0.3611348744
 C        -9.5275795677        4.0503826105       -0.2915976137
 O        -8.9897676238        3.6419066224       -1.3176130071
 C        -8.6145227701        4.7047385798        0.8251079049
 C        -8.3715728735        3.4574749363        1.7769116180
 O        -7.5352445632        2.6591612941        1.4710405788
 C        -9.3994564177        3.1973500877        2.9155147249
 C        -8.9969432226        2.0207380073        3.8895775666
 C        -9.8841396294        0.7559032130        3.6191699776
 O       -11.0147451550        0.9459850685        3.3195967400
 C        -9.3662356682       -0.7331408282        3.5277103746
 C        -8.9175353440       -1.0526506670        2.0412226199
 O        -9.7128178688       -0.8372946004        1.0976397832
 C        -7.7499905086       -1.8174987086        1.7667830748
 C        -7.3243569281       -1.7138702750        0.1944061936
 C        -7.8762943993       -0.4559977791       -0.4664426047
 O        -7.5221412813        0.6750994229       -0.1241506397
 C        -8.8260253330       -0.6753544320       -1.7086210243
 C        -7.8444788074       -0.4466137427       -2.9310635412
 O        -6.7006805181       -0.0153901361       -2.5783301602
 C        -8.3501122228       -0.2727122802       -4.3432088509
 C        -7.1499029513        0.1847365502       -5.2123618361
 C        -6.6890978044        1.5564047042       -4.8095265916
 O        -7.4854185195        2.3243773982       -4.2004669601
 C        -5.2611143972        2.0248638126       -5.0609042940
 C        -4.9063279892        3.2902963663       -4.0907776366
 O        -5.4434632786        3.4580855549       -2.9790631147
 C        -3.9271128873        4.4203474462       -4.6150020271
 C        -4.0812828994        1.0817404120       -4.6878724592
 C        -5.3131312986        2.3130119705       -6.6287455737
 C        -9.6812831194       -1.9393077281       -1.8808303505
 C        -9.9351862635        0.4775086828       -1.6756629288
 C        -8.1797515705       -0.9735712388        4.4966434419
 C       -10.3864722102       -1.7934369075        3.7931749989
 C        -7.2013335556        5.0522102245        0.3138967758
 C        -9.1346429157        5.9823764531        1.3622887334
 C       -13.7185712477        7.0106054425       -2.5437332616
 C       -12.2323995038        8.5132150302       -1.4939768488
 C       -14.8159922857       11.3014286095        4.5913364244
 C       -15.7363779453        8.9192275144        5.1850385496
 H       -17.6704358714       11.3818119140        4.6951384129
 H       -18.7055810510       11.3431745554        3.2143396958
 H       -17.1375694811       12.3377132559        3.1985606718
 H       -15.0956994409        8.5720638146        1.1983438063
 H       -15.1064907106        7.5045717238        2.4318416098
 H       -12.7424209751        6.7510184049        2.1927930631
 H       -12.4004018515        8.3188964400        1.2579079446
 H       -11.7662814716        3.9801615232       -2.3714003713
 H       -13.0299338527        4.3850361948       -1.1670110309
 H       -11.0608353754        2.7922769579       -0.2998399296
 H       -11.2984987591        4.1923755976        0.6657142704
 H       -10.4178709937        3.1284019231        2.6823142831
 H        -9.2818194570        4.1766218244        3.5593976934
 H        -9.1142873153        2.4187763285        4.8911607392
 H        -8.0105186883        1.6274095869        3.7428588461
 H        -7.7331117970       -2.8888570647        2.0958586729
 H        -6.8319213749       -1.3991987421        2.2753749483
 H        -7.8563112066       -2.5891314467       -0.2344416941
 H        -6.2061589298       -1.6519141449        0.1194811047
 H        -9.1049085202        0.5195270348       -4.3984086358
 H        -8.7590620474       -1.0569004370       -4.8489096972
 H        -7.4607819622        0.3495663392       -6.1652912383
 H        -6.4262911587       -0.6669980761       -5.3266759138
 H        -2.9888034222        3.9825277551       -4.1807630902
 H        -4.1835552692        5.3628556004       -4.2928392271
 H        -3.8820286604        4.2871272944       -5.6737225970
 H        -3.5914621031        1.2633230806       -3.7093682187
 H        -3.3355916619        1.1317008234       -5.3918692762
 H        -4.4398730437        0.0059467250       -4.7222780089
 H        -5.0624127624        3.2453435057       -7.0870314140
 H        -6.3969701314        2.4632511262       -6.8342318730
 H        -4.9255843782        1.4064865718       -7.1523230954
 H        -9.2500023172       -2.9416633907       -2.0863309633
 H       -10.3298242837       -2.0168993764       -2.7431561255
 H       -10.4785140295       -2.0006561010       -1.0608075775
 H       -10.0532056716        0.6882769174       -0.5787176203
 H       -10.8441378238        0.1938768268       -2.1951014694
 H        -9.5689060744        1.4420998157       -2.1433080993
 H        -8.3430633871       -0.2649878997        5.3092096417
 H        -7.2463261322       -0.7143960121        4.0063384561
 H        -8.0303448496       -1.9854390394        4.8544004034
 H       -11.2879294211       -1.3939636212        4.1221509411
 H       -10.0067397533       -2.5926854554        4.4673693351
 H       -10.6285043421       -2.3701654249        2.8552419660
 H        -6.5604488246        4.2476027194        0.3759027032
 H        -6.5699651723        5.7510551990        0.8399181307
 H        -7.1766685426        5.4509144278       -0.6905483201
 H        -9.4494717329        6.6878243614        0.4693877767
 H        -8.5861201020        6.5916513508        2.0541175662
 H       -10.1500947743        5.9511771241        1.8551384044
 H       -14.1124019075        7.9391947020       -2.9757405823
 H       -14.5362361822        6.3602415633       -2.0579686233
 H       -13.3279980445        6.2868743221       -3.3109026495
 H       -13.1289405999        9.1324453293       -1.4722381034
 H       -11.9979885636        8.5421109965       -2.5032189490
 H       -11.3836329949        8.7153123661       -0.8607542159
 H       -14.7875046945       12.1083778414        3.8991565618
 H       -13.8382004669       11.2988904917        5.0203665127
 H       -15.6431067358       11.5706395531        5.1780617564
 H       -16.6448768727        9.1060579758        5.7736734042
 H       -14.8338321807        9.0505973843        5.8760239696
 H       -15.7151324693        7.8541226132        4.7769877456
 Na       -7.3001661802        2.4943462468       -1.7100127898
