117

 C       -17.3410620857       11.7027793403        3.1385477643
 C       -16.5081779040       10.4724138088        2.7378306388
 O       -16.9295246116        9.6050109272        2.0341983836
 C       -15.1473835876       10.3195847503        3.6052115523
 C       -13.9525752090        9.5798410922        2.9257023355
 O       -12.8280205076       10.0234076842        2.7434921840
 C       -14.2929867110        8.2946317394        2.2416775815
 C       -13.0406327247        7.8299581853        1.4508175261
 C       -13.3042175078        6.7805733716        0.2425452278
 O       -14.2190163837        5.9834860553        0.2612055404
 C       -12.5164453764        7.0584349474       -1.0926865684
 C       -11.6581772509        5.8920975031       -1.4994495546
 O       -10.7262236494        5.9717901162       -2.2476218305
 C       -12.1128295461        4.4336931291       -1.1129098424
 C       -11.3717573868        3.8900037678        0.0650733544
 C        -9.8478266464        3.8527249272       -0.2488221529
 O        -9.4283545956        3.2743031383       -1.2803143763
 C        -8.8084494529        4.6800272290        0.6510330233
 C        -8.4869676403        3.4972578445        1.7507975377
 O        -7.4604644291        2.9283942289        1.8257547988
 C        -9.6105413927        3.1687879530        2.8651856383
 C        -9.2284843186        1.9608020634        3.6967153309
 C       -10.2140592871        0.7773221007        3.6517733284
 O       -11.4009116242        0.8884639585        3.6243871871
 C        -9.5142046145       -0.6436465620        3.7609718416
 C        -8.8161688001       -0.7880653929        2.2850827639
 O        -9.3521371975       -0.2299857281        1.3128475266
 C        -7.4028363664       -1.4315287653        1.9753442839
 C        -7.3354857085       -1.8397632409        0.4098078723
 C        -7.6122043464       -0.5944946821       -0.3883991525
 O        -7.0075826125        0.4540857691       -0.2575755455
 C        -8.5342823705       -0.8174342128       -1.7237490396
 C        -7.7420873195       -0.3432651501       -2.9453313458
 O        -6.6708973014        0.1895223106       -2.7579670066
 C        -8.3642440458       -0.4821068233       -4.3505369719
 C        -7.5416453899        0.1393874315       -5.4488451350
 C        -7.0615476852        1.5441500934       -4.9545592564
 O        -7.8760965684        2.2328018691       -4.3822703028
 C        -5.4662222368        1.9339447028       -5.0338458111
 C        -5.0117671171        3.0893276569       -3.9914186945
 O        -5.7565069930        3.4880925525       -3.0723373363
 C        -3.6599310977        3.7421725722       -4.1237966809
 C        -4.6415962961        0.6816102854       -4.6742942201
 C        -5.2022824759        2.4154623719       -6.5269046964
 C        -9.0939478545       -2.2717865410       -1.8745161173
 C        -9.8306398093        0.0647422620       -1.5066094739
 C        -8.3881035164       -0.6966229771        4.9259449561
 C       -10.5590451835       -1.7453940612        3.9527497564
 C        -7.5081618499        4.9016723865       -0.0558336407
 C        -9.2470438165        5.9160296376        1.3583610510
 C       -13.5872678400        7.0353772968       -2.2920912585
 C       -11.6444139348        8.2899328631       -1.1438360858
 C       -14.4756080784       11.7344310488        3.9885464337
 C       -15.5206384955        9.4991117673        4.9035399091
 H       -16.7953523519       12.5773359536        3.4120753883
 H       -17.8020483477       11.3495964871        4.1183284847
 H       -18.1178966016       11.7022786268        2.3100627964
 H       -15.2480590357        8.4203075761        1.5570908783
 H       -14.5803144241        7.4788566077        2.9029832523
 H       -12.1897604008        7.4599057412        2.1135723113
 H       -12.6747465566        8.7322762990        1.0218081601
 H       -11.8234182787        3.8184871493       -1.9920142236
 H       -13.1343661133        4.1824597938       -0.8282440016
 H       -11.6575293698        2.8656761860        0.1985545031
 H       -11.4510481774        4.4738616493        0.9707877544
 H       -10.5668776972        3.1297438599        2.3380784378
 H        -9.7452632443        3.9821602311        3.5767510954
 H        -9.1266185928        2.3030342686        4.7475933259
 H        -8.2502552105        1.5247182841        3.3286767729
 H        -7.0998064395       -2.2443700495        2.5920348161
 H        -6.6073669937       -0.7020438869        2.1473292280
 H        -8.1344466758       -2.5523145970        0.3403697349
 H        -6.4226751902       -2.2570246116       -0.0246090900
 H        -9.2330718136        0.1770139881       -4.5754608745
 H        -8.6594510143       -1.4707850277       -4.5723662462
 H        -8.1974445626        0.2794388298       -6.2806421759
 H        -6.7134599092       -0.4432398663       -5.9088940201
 H        -2.9766579871        3.0148948282       -3.6541014656
 H        -3.8080662961        4.6288269487       -3.5246103099
 H        -3.4202409908        4.0508750046       -5.1899134345
 H        -5.1370508294        0.1307313735       -3.8669197859
 H        -3.7075638611        0.9562024388       -4.2429707054
 H        -4.3167985716        0.0703782166       -5.5150785877
 H        -4.6120178090        3.2790912758       -6.6615718086
 H        -6.1225660018        2.7410556197       -7.0188862663
 H        -4.6765445236        1.6672470299       -7.0220906317
 H        -8.5326401200       -2.9210379203       -2.4640312482
 H        -9.9067291711       -2.2940813076       -2.4665110015
 H        -9.5252841910       -2.8365302011       -1.0985460762
 H       -10.6752315507       -0.4688276315       -1.9026715785
 H        -9.6854032993        1.0145571158       -1.9787256643
 H       -10.0212542280        0.2590880584       -0.4829048470
 H        -8.7123205951       -1.4506320956        5.6603875061
 H        -8.2644024259        0.2670253809        5.3979666783
 H        -7.3821654070       -0.9428983743        4.5810195209
 H       -11.1821976293       -1.9841292893        3.0943235671
 H       -11.1402246080       -1.3897949849        4.8164984701
 H       -10.1498713783       -2.6563635342        4.3546979846
 H        -6.6716787511        4.6107367059        0.6103222669
 H        -7.2271159554        5.8444682005       -0.4785769089
 H        -7.2749935859        4.2748420741       -0.9926298102
 H        -8.9687310926        6.8816609846        0.9072140892
 H        -8.6177096269        6.0272330585        2.1896611084
 H       -10.2296585029        6.0472004219        1.7300117934
 H       -14.5048360152        6.9092539129       -1.8916174034
 H       -13.4279920187        6.2628292498       -3.0205876440
 H       -13.5450897038        7.9974351100       -2.7636008294
 H       -12.3974088368        9.1814867629       -1.0635225949
 H       -11.0819797914        8.3609215408       -2.0702271230
 H       -10.9812095789        8.1721011579       -0.2918762009
 H       -14.4143765140       12.3708424681        3.0048102086
 H       -13.3989131575       11.4091749567        4.2670267402
 H       -14.9059827965       12.3730497905        4.8268143750
 H       -16.3184158640        9.8849471274        5.4184683777
 H       -14.7240011619        9.3359602206        5.5561329017
 H       -15.9067069526        8.5914191529        4.4351508479
 Na       -7.1622066702        2.1587649750       -1.8667289928
