117

 C       -17.2047023222       11.9719130931        2.1382480611
 C       -16.1604150883       10.7863445270        2.3205584151
 O       -16.3151131684        9.7809819667        1.7152926988
 C       -14.8686724618       10.8696625252        3.3804846449
 C       -13.6652119446       10.0418586954        2.5907497277
 O       -12.7200014935       10.6389946362        2.2028438017
 C       -13.7704896535        8.5151433357        2.4821166485
 C       -12.8294012211        8.0256244869        1.2941260479
 C       -13.2103172177        7.0236231377        0.2158587679
 O       -13.9821132708        6.0728921230        0.3421477405
 C       -12.3972500278        7.0289086790       -1.1698661054
 C       -11.8734508500        5.6471976198       -1.5660282226
 O       -10.8787977932        5.4745790069       -2.3122951850
 C       -12.3530564918        4.3564325390       -1.0037145015
 C       -11.6702151264        3.7962975224        0.2754758819
 C       -10.1186703885        3.5504145439        0.0246209667
 O        -9.7624480812        2.6872883270       -0.8647108727
 C        -9.0709525134        4.4166536255        0.6448502698
 C        -8.5206925896        3.5933899265        1.9063498384
 O        -7.3768462690        3.3224807363        2.0834229197
 C        -9.6509412153        2.9233205631        2.6615288574
 C        -9.4592922411        2.3432086552        4.0660894188
 C       -10.1760379952        0.9549117129        4.1708025116
 O       -11.3737430812        0.9593393272        4.0594536146
 C        -9.4308615083       -0.4776243475        3.8850643571
 C        -8.7271993894       -0.3282829436        2.5433700317
 O        -9.3483157229        0.2823499785        1.6605362497
 C        -7.3846103602       -0.9780528833        2.1315148770
 C        -7.5003650959       -1.6835148865        0.7862085514
 C        -7.6033402223       -0.7213363284       -0.3728043986
 O        -7.2016377122        0.4657388875       -0.3943708021
 C        -8.3564576882       -1.2974827870       -1.6808639977
 C        -7.6781351011       -0.7353685905       -2.9704350728
 O        -6.6370983952       -0.0659033068       -2.8583685426
 C        -8.2662810852       -0.9351911023       -4.3575326149
 C        -7.7201283307        0.0111319267       -5.4330665252
 C        -7.0356501766        1.3352341718       -4.8976600837
 O        -7.8454311213        2.1385517850       -4.4057151242
 C        -5.5952595669        1.8198024994       -5.1235551902
 C        -4.9926177761        2.5640589559       -3.8155285799
 O        -5.6804694857        3.1135676860       -2.9093730154
 C        -3.4574597329        2.8095398662       -3.8097299984
 C        -4.6367196521        0.6660817722       -5.4057816412
 C        -5.7515856730        2.9180504456       -6.3786253962
 C        -8.3952504199       -2.8047505218       -1.7308260038
 C        -9.8478593151       -0.8783279165       -1.5013023583
 C        -8.6353259957       -0.7207882859        5.0916449992
 C       -10.4605768110       -1.5565489005        3.8969177004
 C        -7.8863056675        4.8453009589       -0.2415738310
 C        -9.7782294365        5.7117703758        1.2911578540
 C       -13.6533045936        7.5813089761       -2.1000143340
 C       -11.2755070176        8.2071162236       -1.3056276469
 C       -14.4542673090       12.2977768960        3.5776416700
 C       -15.1850711513       10.1629397757        4.7738972217
 H       -17.7957937831       11.8730087043        1.2833537551
 H       -16.5969704922       12.8589354319        2.1272090133
 H       -17.8264515945       11.8808607376        3.1650008510
 H       -14.8567335607        8.2086709887        2.2798006448
 H       -13.3645531483        8.2576832338        3.4476817815
 H       -11.9165097349        7.6637151881        1.6832176722
 H       -12.4624112891        8.9225712913        0.8025328801
 H       -12.1474917963        3.5558628320       -1.6984428810
 H       -13.4149924754        4.3150367340       -0.8229748255
 H       -12.0559618182        2.8093770325        0.5547435110
 H       -11.7475661759        4.5033800111        1.1265325894
 H        -9.9822261036        2.2423673997        1.8787912050
 H       -10.4403319755        3.7058132350        2.6668356961
 H        -9.9873378355        3.0435849615        4.7467709832
 H        -8.3723121734        2.2361969883        4.2958505129
 H        -7.1180485305       -1.7451024198        2.8191204968
 H        -6.4990354808       -0.3493708112        2.1577506911
 H        -8.2879630437       -2.3944635620        0.7858509968
 H        -6.6458511890       -2.3379500644        0.7688072382
 H        -9.4038795069       -0.8814130938       -4.1942366592
 H        -7.9534732911       -1.9050778856       -4.7643970035
 H        -8.4803629381        0.4107588436       -6.0804730006
 H        -7.0720590673       -0.6358791163       -6.1871966181
 H        -3.1006449130        1.7623840253       -3.4489077793
 H        -3.1599219956        3.5522841520       -3.1351378308
 H        -3.1594537784        3.0141429812       -4.8585398710
 H        -4.2983829037        0.1247759404       -4.4629480535
 H        -3.8079224214        1.0423304895       -5.9800253862
 H        -5.1508305067       -0.1543565254       -6.0888729698
 H        -5.4342504165        2.5762688568       -7.3510121249
 H        -5.3549689392        3.8239545436       -6.0177985525
 H        -6.8113024990        3.3081090546       -6.5625518842
 H        -7.5391545658       -3.3190983126       -1.3821019570
 H        -8.6223291689       -3.2438919543       -2.6408376515
 H        -9.0901049988       -3.3368278324       -1.1041143679
 H       -10.1246384028       -0.0206400039       -0.9137328191
 H       -10.2235096011       -1.7410501742       -1.0253677715
 H       -10.4373912613       -0.8478311373       -2.4523602716
 H        -7.7979661186       -1.4624217691        4.8784303038
 H        -9.2186544806       -0.9783626113        6.0095579826
 H        -7.9766818474        0.1597108462        5.2993098045
 H       -10.1137353593       -2.4678544828        4.3396489167
 H       -10.7660074906       -1.7854302302        2.8509802707
 H       -11.3952869558       -1.2868747054        4.4938080266
 H        -7.7190629629        5.8929134235       -0.5517780607
 H        -7.8244110374        4.1833591415       -1.1521326703
 H        -6.9278968922        4.7779361781        0.2260033412
 H       -10.2625354306        6.3911139540        0.5593572227
 H        -9.1712345228        6.3745181632        1.7466094331
 H       -10.5189081422        5.5392758744        2.0066767969
 H       -13.5792595110        7.1161021938       -3.0769165858
 H       -13.4810473201        8.6366191138       -2.3305003916
 H       -14.5847249331        7.3126701675       -1.6336563597
 H       -11.6629486870        9.2447188052       -1.1918027422
 H       -10.9612316602        7.9134622259       -2.2656071363
 H       -10.4490314466        8.1575470587       -0.5833753037
 H       -14.0301112818       12.6454808150        2.6489253547
 H       -13.7619663352       12.2259082921        4.3809011199
 H       -15.1329570907       12.8776193698        4.2700968444
 H       -15.0167441709       10.9046853818        5.5063310492
 H       -14.5296773021        9.2883460102        5.0138899123
 H       -16.2590558720        9.9364570174        4.8759690175
 Na       -7.7446256421        2.0497626498       -1.9343617036
