117

 C       -16.8596243432       12.0782388247        2.0068151943
 C       -15.9286264408       10.8206261519        2.0502651306
 O       -16.2600214692        9.7358324973        1.5872508352
 C       -14.6908589573       10.9489855829        3.1117523298
 C       -13.4909956694       10.2338015681        2.5155021111
 O       -12.6803211980       10.9481656593        1.8955519928
 C       -13.5581921699        8.7369261479        2.2284593444
 C       -12.4438758835        8.3274308054        1.3206926587
 C       -12.9376955962        7.2158887361        0.3664115483
 O       -13.8002326533        6.4992866152        0.7964987494
 C       -12.3327477976        7.0511944119       -1.0297059739
 C       -11.8758320654        5.6656681735       -1.5143929529
 O       -10.9938636586        5.6841563489       -2.3106756955
 C       -12.5614245503        4.4340079644       -0.9669506085
 C       -11.8699772971        3.7735025169        0.1903516362
 C       -10.3637233417        3.5579970188       -0.0736572773
 O        -9.9920407472        2.7498730402       -0.8431954154
 C        -9.2993087451        4.4708803503        0.6311777681
 C        -8.7727657288        3.6638395869        1.9400833647
 O        -7.6215504946        3.6626505616        2.2869016103
 C        -9.9491016733        3.0024235510        2.8901830061
 C        -9.3432342880        2.2158185886        4.1148448959
 C       -10.2612224902        0.9277303950        4.3941234927
 O       -11.4042937509        1.0196300047        4.7018565867
 C        -9.4362214698       -0.3696779670        3.8688530819
 C        -8.8162116668       -0.1809842404        2.4982381366
 O        -9.4921266031        0.2222911029        1.6053100041
 C        -7.4137872068       -0.9083405214        2.1884543394
 C        -7.4462446828       -1.6689095670        0.8407869275
 C        -7.7124210443       -0.7271309651       -0.3823247490
 O        -7.4327108222        0.4347632761       -0.2916483261
 C        -8.2807281395       -1.4114553604       -1.6483184842
 C        -7.6580400609       -0.7829637902       -2.8961034847
 O        -6.5786926973       -0.2799017974       -2.7903602889
 C        -8.3417884434       -1.0453872020       -4.2707698979
 C        -7.5026921914       -0.1518545224       -5.2791613726
 C        -7.1670891096        1.1537430772       -4.7370095222
 O        -8.0405837028        1.8038791495       -4.1878227814
 C        -5.7813769858        1.8022924945       -5.0933890616
 C        -5.0362643406        2.3172937518       -3.7692477910
 O        -5.6618633759        2.6086576536       -2.7780171740
 C        -3.5122580772        2.4130142444       -3.8349570228
 C        -4.8054616626        0.8126948902       -5.8832252305
 C        -5.8760970944        3.0109190304       -6.0015371713
 C        -7.7408507402       -2.8329514884       -1.7161932162
 C        -9.8340145710       -1.2711122322       -1.6587129259
 C        -8.3837011230       -0.5941704465        4.9066208968
 C       -10.4720492309       -1.5194008728        3.8212992197
 C        -8.1714220996        4.6919081219       -0.3469177305
 C        -9.6381322713        5.8108042683        1.2306757671
 C       -13.4297155552        7.0667492789       -2.2973154105
 C       -11.3151384937        8.1635434999       -1.3752685879
 C       -14.3399504761       12.4538712531        3.3118683905
 C       -15.2795218268       10.2556416761        4.4297402694
 H       -17.7514786873       11.5253452816        1.7379222521
 H       -16.6466587582       12.8366647347        1.2226609837
 H       -16.9685334223       12.5414259638        3.0015413203
 H       -14.4161505386        8.7218469557        1.6183216391
 H       -13.6863656340        8.0419169723        3.0919798879
 H       -11.6170256978        7.8861644578        2.0402975658
 H       -11.9058582156        9.2582831436        0.9820921853
 H       -12.6587727759        3.5148163457       -1.5837466653
 H       -13.5953060430        4.7217463815       -0.6649522895
 H       -12.2538354025        2.7558824242        0.2815188892
 H       -11.9809412590        4.2322389101        1.1575453631
 H       -10.6294073176        2.4445548569        2.2293364565
 H       -10.4987135639        3.8466689148        3.2716452541
 H        -9.3991705610        3.0077856410        4.8697688835
 H        -8.3445628360        1.7946828068        3.9794201970
 H        -6.8934032198       -1.5255331346        2.9970125989
 H        -6.7984092400        0.0208253716        2.1351097111
 H        -8.1508192840       -2.5333014659        0.9328565794
 H        -6.5525841662       -2.2862846030        0.6219561452
 H        -9.3412624646       -0.7289902882       -4.3346603393
 H        -8.2227024217       -2.0628194061       -4.6131945889
 H        -8.1718073801       -0.1213424186       -6.1645182625
 H        -6.6291700963       -0.5532892437       -5.5887110343
 H        -3.0206103147        1.5639576624       -3.5161725518
 H        -3.3705843819        3.2145222673       -3.0497477689
 H        -3.2071471922        2.8355452866       -4.8149663248
 H        -4.7635776528       -0.0751824963       -5.3213560275
 H        -3.8046809062        1.2682585438       -5.9956559414
 H        -5.1988654703        0.5642372737       -6.7873602321
 H        -6.6097745010        2.8013014461       -6.7394388103
 H        -4.9538226127        3.3939142748       -6.5216096354
 H        -6.1352854325        3.8514999605       -5.4809485307
 H        -6.7212928849       -3.0759928807       -1.9986402911
 H        -8.4122970573       -3.4158280891       -2.3496060845
 H        -7.6627580286       -3.4051401299       -0.7872824591
 H       -10.2448963631       -1.1377389422       -0.6413923152
 H       -10.3649941001       -2.1418272510       -2.0887386898
 H       -10.1420967947       -0.4581563942       -2.2327936966
 H        -7.4862015050       -1.0550114009        4.5977304939
 H        -8.7877319980       -1.2300632565        5.6638875350
 H        -7.9752229284        0.2913070009        5.3596646912
 H       -10.5000979545       -2.1391438350        4.7579256937
 H       -10.2492069796       -2.1832888027        2.9918609709
 H       -11.4520867425       -1.1529597450        3.7935900951
 H        -8.4803721832        4.9866113298       -1.3240413498
 H        -7.7014187384        3.7889904645       -0.4810579294
 H        -7.4662675361        5.5441458467       -0.1727409479
 H        -9.9052479720        6.6134159043        0.5957664505
 H        -8.7885295558        6.2447264144        1.8644724885
 H       -10.4489148726        5.8215840155        1.9904843543
 H       -12.9609049849        7.5466103999       -3.0825552632
 H       -14.3494350214        7.5966472531       -2.0777400266
 H       -13.6069166521        6.0557472485       -2.5927714090
 H       -11.8107833075        9.0455953956       -1.0069745328
 H       -11.0082515320        8.1445989635       -2.4511940053
 H       -10.5222397865        8.1387128218       -0.6429599072
 H       -14.2110867186       12.7989203693        2.2620834484
 H       -13.5045175608       12.7036434220        4.0237160498
 H       -15.0947776419       12.8362009189        3.8984476408
 H       -15.0318346609       10.9491908148        5.2280220576
 H       -14.8917825208        9.2973873048        4.5912007564
 H       -16.3542165502       10.0794406203        4.4821838838
 Na       -7.7250969630        1.9442609537       -2.0475868082
