117

 C       -16.2735381929       12.3000998843        0.7900291511
 C       -15.6540217173       11.1974547241        1.5489864050
 O       -15.7672125262        9.9973960551        1.1393343838
 C       -14.4627587505       11.5353811760        2.6120003647
 C       -13.1671538133       11.0034001268        1.9228154424
 O       -12.5785863525       11.8211954498        1.2113127384
 C       -12.9778704242        9.5415287474        1.7078686662
 C       -12.3045634979        9.2453243088        0.3331736571
 C       -12.5710751381        7.7462935447        0.0690671033
 O       -12.4676828832        6.9375207915        0.9643535590
 C       -12.6053772267        7.2297686362       -1.4025709047
 C       -11.9360774415        5.7376438911       -1.4169710429
 O       -10.7757947360        5.6367043189       -1.6851109085
 C       -12.6811083620        4.5939415926       -1.0147808983
 C       -11.9940226124        3.7616464496        0.0752167066
 C       -10.5134825896        3.6580157154       -0.1628397023
 O       -10.1016468978        2.8708632286       -1.0664294434
 C        -9.3818188550        4.4086478161        0.7626594235
 C        -9.0524167808        3.7020353316        2.1088163959
 O        -7.9438592456        3.9607824845        2.6173520485
 C       -10.0511285128        2.6070064380        2.7182606393
 C        -9.5038801082        2.3689554451        4.1393259624
 C       -10.0488575855        1.0746052473        4.7848358653
 O       -10.8754062203        1.1250286820        5.6494725541
 C        -9.3829670740       -0.3665912844        4.2925336382
 C        -9.1651710946       -0.3375074599        2.8056834348
 O       -10.0651171980       -0.3720953462        1.9796168383
 C        -7.6660718520       -0.5597505996        2.3183516340
 C        -7.5921619883       -1.6064164509        1.1312871347
 C        -7.8843134245       -1.0231471091       -0.3263180959
 O        -7.9117095532        0.1297770762       -0.4919613215
 C        -7.9875961447       -2.1611770452       -1.5507772336
 C        -7.3486475458       -1.4777542159       -2.8002211504
 O        -6.1779594635       -1.1149802057       -2.7912887921
 C        -8.1836398896       -1.2834668538       -4.1307821047
 C        -7.4890823088       -0.4118069711       -5.1227369992
 C        -7.5672328515        1.1030542799       -4.7357293182
 O        -8.5537916052        1.6252527451       -4.3226268227
 C        -6.2251252039        1.8717698743       -4.8758759381
 C        -5.2958878508        1.6852402959       -3.6300726488
 O        -5.7725385134        1.8397573832       -2.5746399772
 C        -3.7785464866        1.3457990992       -3.8182691987
 C        -5.6199223379        1.4926605289       -6.2625184116
 C        -6.5746560012        3.3727845931       -4.9521454438
 C        -7.0545266074       -3.3383658548       -1.1061100516
 C        -9.3838819805       -2.8301816033       -1.5819960754
 C        -8.1944716513       -0.5772449883        5.3312138243
 C       -10.3989800984       -1.5446116563        4.5263278437
 C        -8.0190381793        4.7334898338        0.0525750943
 C        -9.8638331630        5.8546682445        1.3537458154
 C       -14.0491783541        7.1296346333       -2.0419493281
 C       -11.7033984147        8.2709550293       -2.1871007883
 C       -14.1347749343       13.0113430137        2.9385139108
 C       -14.7508919347       10.7201274676        3.8674721851
 H       -16.5518159853       11.8369196900       -0.1401562148
 H       -15.4922406415       12.9749293369        0.6484006943
 H       -17.0739373502       12.8476941553        1.2754349320
 H       -13.9158141837        8.9540656416        1.7627509790
 H       -12.3572998978        9.2651614779        2.5426072002
 H       -11.3082349199        9.3736711672        0.4059662581
 H       -12.7470602442        9.8583511382       -0.4153227196
 H       -12.7614732357        3.9036855964       -1.8393154162
 H       -13.7397603703        4.8706423969       -0.8109187620
 H       -12.4739674632        2.7577914233       -0.0610138992
 H       -12.2914198036        4.0876883270        1.1148126047
 H        -9.8644731781        1.8344725290        2.0363706361
 H       -11.1524809144        2.8590034118        2.8103708472
 H        -9.8099940617        3.2251540472        4.7294834597
 H        -8.4323847328        2.3854170117        4.0848555218
 H        -7.1328236641       -1.0078347610        3.1658346132
 H        -7.3363760515        0.4946355858        2.1253421292
 H        -8.2094772678       -2.5347938060        1.2533331011
 H        -6.5351005281       -2.0121909685        1.1767853620
 H        -9.2599109012       -0.9933966559       -3.8313207346
 H        -8.2250392429       -2.4001735847       -4.4789138520
 H        -8.1062421736       -0.4355246532       -6.1062858035
 H        -6.4446651505       -0.7462262980       -5.2884008897
 H        -3.7227639215        0.4749732360       -4.4332180068
 H        -3.5878748403        0.9641218190       -2.7673780850
 H        -3.1230614305        2.0825690487       -4.1179718183
 H        -5.5462062134        0.4456111753       -6.3866544379
 H        -4.5765392693        1.9455173418       -6.2781694445
 H        -6.2020565260        2.0456670487       -6.9339431378
 H        -6.0878191138        4.0272310662       -4.1689393684
 H        -7.6861985899        3.6267164296       -4.9709335998
 H        -5.9661179575        3.7747701710       -5.7453317864
 H        -5.9747134131       -3.0743542360       -1.2809661810
 H        -7.0352445993       -4.2756452244       -1.7878307822
 H        -7.0780951795       -3.7689898138       -0.0875170555
 H        -9.8956158437       -2.3482422980       -2.4066179013
 H       -10.0754317686       -2.6904791014       -0.7408989093
 H        -9.3701919757       -3.9238797704       -1.7958377672
 H        -7.7046791816       -1.4357338839        4.9280642286
 H        -8.4355209734       -0.8156481644        6.3459904797
 H        -7.4880873715        0.2040757159        5.3369421259
 H       -11.2505288382       -1.2624069997        5.0817220138
 H        -9.8908098271       -2.3026507327        5.0816102469
 H       -10.8011236978       -2.0011035863        3.5643306729
 H        -8.0975900899        5.4687800826       -0.6948734641
 H        -7.6909540858        3.8935309412       -0.5481771128
 H        -7.2639953324        4.7931142980        0.7905492984
 H        -9.9711337436        6.6089125299        0.5841222355
 H        -9.1248767271        6.3170267588        2.1082846668
 H       -10.8789895230        5.8923612771        1.8030643293
 H       -14.8372442902        7.0616168695       -1.2731410323
 H       -14.1068254702        6.4475326742       -2.8738637375
 H       -14.2257336726        8.1618876361       -2.4202921353
 H       -12.0179419625        9.2727533902       -2.1008556398
 H       -11.9008062156        8.1188699841       -3.2693225607
 H       -10.6149501632        8.0364407222       -2.0006633386
 H       -13.7091970951       13.5062591304        2.1143280278
 H       -13.3232290432       12.8859315087        3.5453733614
 H       -14.9092664830       13.5751353273        3.3435670519
 H       -13.8837659219       10.4138893790        4.5325129542
 H       -15.3355670125        9.7641883218        3.6433365740
 H       -15.4708246703       11.2475174293        4.4368140491
 Na       -8.1146038294        1.7409110406       -2.0615632306
