117

 C       -16.0109401462       12.5320892461        0.4416717745
 C       -15.4142796921       11.3906561319        1.3523559124
 O       -15.8021434011       10.2839758442        1.2896844324
 C       -14.3120323488       11.8640411508        2.4248527106
 C       -12.9979241672       11.3543631457        1.7493177471
 O       -12.4445779103       12.1077003416        1.0328587099
 C       -12.6554937974        9.8026016571        1.5884941070
 C       -12.8645492912        9.4412189195        0.0526573756
 C       -12.4303557205        7.8818851536       -0.1517771411
 O       -12.4461398992        7.1234149355        0.8044523827
 C       -12.5055101624        7.1701807568       -1.6276600282
 C       -11.7231648942        5.8399763649       -1.5096277028
 O       -10.5288941938        5.6777197106       -1.8530949666
 C       -12.4392009192        4.7521364089       -0.8334274307
 C       -11.7569445595        3.9269566545        0.2681190446
 C       -10.1639016837        3.6109667537       -0.0626724788
 O       -10.0109060698        2.9140058365       -1.0131939661
 C        -9.2298299484        4.3931963854        0.7868118603
 C        -8.8823433324        3.5948125601        2.0898710351
 O        -7.8299249846        3.7923265100        2.6257776687
 C        -9.9617591942        2.5356069310        2.6978523673
 C        -9.4424257741        2.1598457436        4.0661405470
 C       -10.1110258636        0.9667599172        4.7115040576
 O       -10.8456645399        1.0048093949        5.6836010854
 C        -9.5571072079       -0.4305766591        4.4040869910
 C        -9.2364230550       -0.5942025966        2.8882441018
 O       -10.2058285864       -0.7553863925        2.1656003690
 C        -7.7958704048       -0.5163916059        2.1673004674
 C        -7.7457076943       -1.6737959563        1.2142308133
 C        -7.7831367958       -1.2991057438       -0.2239304067
 O        -8.1733039820       -0.1340121876       -0.5562895031
 C        -7.7458263764       -2.2937040080       -1.3783542837
 C        -7.1947994598       -1.5326947871       -2.5769088761
 O        -6.0213676561       -1.3351512697       -2.7991825989
 C        -8.2230651798       -1.2222151032       -3.6689118947
 C        -7.5229233023       -0.5690778775       -4.9294707853
 C        -7.6334536530        0.9069229002       -4.6750888663
 O        -8.7678460459        1.3287068054       -4.3899598643
 C        -6.4658775695        1.9694187556       -4.7580202812
 C        -5.4413694847        1.5906021411       -3.6756827031
 O        -5.8301271597        1.8493373564       -2.5080882849
 C        -4.1276911898        0.8885867268       -3.9710913602
 C        -5.7516084967        1.7674525037       -6.0898374013
 C        -6.8785014173        3.3851849292       -4.5098969217
 C        -6.6993754036       -3.4806804970       -1.0234314217
 C        -9.2581812751       -2.7762399722       -1.5781903139
 C        -8.2349771218       -0.3902429022        5.2438430161
 C       -10.4703567811       -1.5903701143        4.9419041075
 C        -8.0130460328        4.8029921919       -0.2018515983
 C        -9.8914813979        5.6020957967        1.3041849351
 C       -14.0492944246        7.1177697675       -1.8361837894
 C       -11.8758848131        8.0316987548       -2.8066645872
 C       -14.5241458187       13.2890512829        2.9387919642
 C       -14.6028158154       10.9579343482        3.5632323272
 H       -16.2918794494       12.0193236799       -0.5973628722
 H       -15.3093429854       13.4367994729        0.4515075008
 H       -16.8636587339       12.8654396993        0.9417057456
 H       -13.3782833887        9.1746851221        2.1198023819
 H       -11.6361940698        9.4164212787        1.8189702762
 H       -12.1848456918       10.1538058838       -0.5513344752
 H       -13.9326231592        9.4518410613       -0.2489425078
 H       -12.8496679166        4.0590098711       -1.5919172246
 H       -13.3224367156        5.2251805295       -0.4834917602
 H       -12.4063870228        3.0733631767        0.4982171537
 H       -11.8554696477        4.5695965069        1.1177467119
 H       -10.0561978477        1.5860073270        2.0362689362
 H       -10.8762652306        3.0469035304        2.8018718630
 H        -9.2832733073        2.9782896764        4.7793576806
 H        -8.3877059099        1.8317887228        3.7881046475
 H        -6.9588485418       -0.5562754684        2.8197907820
 H        -8.0117171451        0.4282062211        1.7552801728
 H        -8.6670160372       -2.2596695687        1.2024755592
 H        -6.9783704187       -2.3356474889        1.5607789858
 H        -9.0062741454       -0.7077624834       -3.1888925642
 H        -8.6603341865       -2.1326830057       -3.9380298968
 H        -8.1445225384       -0.8982801619       -5.6758673683
 H        -6.4657086137       -0.8351647514       -5.0826434254
 H        -4.3928869461       -0.0677651833       -4.5496865532
 H        -3.5422228216        0.6639768083       -3.1328416302
 H        -3.6085861595        1.6157839437       -4.6781673570
 H        -5.2321895466        0.7674451663       -6.1080602406
 H        -5.0512792661        2.5416124197       -6.1604317228
 H        -6.5759291305        1.9736814100       -6.8607654766
 H        -6.1996152327        4.0069313618       -3.9272445392
 H        -7.8228103821        3.2985500463       -4.0868327811
 H        -6.8758234294        4.0575476376       -5.4093278201
 H        -5.8270666266       -3.1916729395       -0.4713641194
 H        -6.2487180411       -3.9584128264       -1.8365033137
 H        -7.1611518086       -4.2650463569       -0.4515015836
 H        -9.9413409923       -2.0696326344       -1.0591634569
 H        -9.4366653609       -3.6948805259       -1.0098860607
 H        -9.6310279145       -2.9909805600       -2.6019574302
 H        -7.9043148806       -1.3846452812        5.6624174218
 H        -8.3703426243        0.3206699547        6.0822544929
 H        -7.3347777617        0.0307036349        4.7407585053
 H       -10.4051937019       -1.6835481849        6.0665059320
 H       -10.1319895860       -2.5595730717        4.5137169051
 H       -11.4942216191       -1.5004549472        4.6351562562
 H        -8.4510536158        5.3424365355       -1.1024096706
 H        -7.4336134149        3.9126430771       -0.5920085342
 H        -7.2287087891        5.2747705838        0.3942782453
 H       -10.7431342877        6.0437024456        0.7652536183
 H        -9.2704704642        6.3860593876        1.4838333002
 H       -10.3453028778        5.3039787429        2.2357050431
 H       -14.5334054683        6.2612674541       -1.2916577628
 H       -14.2240557714        7.1375979891       -2.9447502243
 H       -14.6001183183        7.9289213406       -1.3196590248
 H       -12.7704527819        8.6551812796       -3.0809876805
 H       -11.5027910975        7.6736393529       -3.7336211801
 H       -11.1087163461        8.6614750174       -2.4373186585
 H       -14.5572365431       14.0796011580        2.1558285526
 H       -13.7890927508       13.5145862043        3.7475865811
 H       -15.6363460537       13.3328337223        3.2742172728
 H       -14.1658948535       11.4583278339        4.4138978704
 H       -14.0792080878       10.0123744373        3.6624848223
 H       -15.7271722540       10.8301537848        3.7948294019
 Na       -8.4168490621        1.8432553945       -1.8560096366
