117

 C       -15.8079143983       12.6331665272        0.3126899129
 C       -15.4064597965       11.5168961891        1.3362975613
 O       -15.8920988286       10.3556410821        1.2113598753
 C       -14.3877747121       11.8669123675        2.4029034437
 C       -13.0148784897       11.6180760401        1.4512003719
 O       -12.2426409610       12.4579111498        0.9804398220
 C       -12.4945455514       10.0681569710        1.2933526476
 C       -12.9570488690        9.4491512911       -0.0839145523
 C       -12.6620954564        7.9614634457       -0.2839999413
 O       -12.3790585917        7.3120758638        0.6877827026
 C       -12.6436046199        7.2616506171       -1.6728092462
 C       -11.6519309823        5.8779545092       -1.4910510387
 O       -10.5212741306        5.7941382465       -1.9685345826
 C       -12.3679454470        4.7547203971       -0.7193006383
 C       -11.7295909662        3.8736316334        0.3061142340
 C       -10.1671014864        3.7468935179       -0.1071990125
 O        -9.8920729646        2.8354050350       -0.8940850859
 C        -9.2226097912        4.4291748922        0.8039968882
 C        -8.7925924684        3.4669195037        2.0053060415
 O        -7.7187781097        3.5721919847        2.6258641408
 C        -9.8373365441        2.5673492250        2.6768085397
 C        -9.3502400431        2.1236266707        4.1434796842
 C       -10.0728286787        0.9469532708        4.7900369239
 O       -11.0264399493        1.0846733813        5.5365081589
 C        -9.4671771508       -0.5296483942        4.5036800797
 C        -9.4351169801       -0.6777797619        2.8858689877
 O       -10.3819710034       -1.0020569594        2.1869437119
 C        -8.0220607049       -0.5970623187        2.2801998989
 C        -7.7320682818       -1.7599813632        1.3206624692
 C        -7.9016322696       -1.2976290181       -0.2001637990
 O        -8.2420553296       -0.1923699370       -0.5056047132
 C        -7.6622779597       -2.4615001736       -1.2730749893
 C        -7.0741829562       -1.7070921010       -2.6722851072
 O        -5.8834058958       -1.4304679712       -2.7289719972
 C        -8.1768864352       -1.3168305553       -3.7586612804
 C        -7.5018504815       -0.5131850985       -4.9202606159
 C        -7.7527631728        1.0596648081       -4.6449823816
 O        -8.8187746339        1.3716018983       -4.2143313322
 C        -6.6008779157        1.9909521949       -4.7473487772
 C        -5.5963393056        1.5257218325       -3.5265504745
 O        -5.9892014342        1.6249114872       -2.4255532492
 C        -4.3410092018        0.7045712872       -3.8371407268
 C        -5.8758455715        1.9650684866       -6.2648840395
 C        -7.1721456495        3.4026635903       -4.3874674580
 C        -6.6692176186       -3.5633025244       -0.9662747219
 C        -9.0769877959       -2.9917160577       -1.3058853994
 C        -8.0603823841       -0.5704794215        5.2811843006
 C       -10.3493875551       -1.5310281588        5.1617022101
 C        -8.0771965276        4.6896512723       -0.3167916099
 C        -9.5520824979        5.8245526770        1.4616181419
 C       -14.1800369822        7.0735376162       -1.9392792424
 C       -11.8998326198        7.9618754039       -2.8946725245
 C       -14.5350355768       13.4099190418        2.7454512157
 C       -14.6268764087       10.9911696562        3.7143729800
 H       -16.1164062272       12.1131612644       -0.6369058288
 H       -14.9195075316       13.2915304851        0.2366060633
 H       -16.6029700375       13.2159396288        0.7081856409
 H       -12.9887411619        9.3803766644        2.0806775477
 H       -11.4684754000        9.8929727452        1.2882309580
 H       -12.4118001960        9.9946588020       -0.9189372566
 H       -14.1620060274        9.5240624126       -0.1829933000
 H       -12.7414632598        4.0046122811       -1.4481973626
 H       -13.3048873658        5.2475303459       -0.4002441000
 H       -12.2001690661        2.9482974546        0.2031088682
 H       -11.7930604939        4.2488139942        1.3084008724
 H        -9.9348928847        1.6655141821        2.0230985189
 H       -10.7812391597        3.1025020398        2.7911742679
 H        -9.6528611353        2.8797958661        4.9140648926
 H        -8.2223692836        2.1798630662        4.1218628394
 H        -7.3546157047       -0.6662599717        3.1106867079
 H        -8.0110080997        0.3999050359        1.7467118382
 H        -8.3749554969       -2.6329050102        1.4415109832
 H        -6.6929715234       -2.0576711687        1.5526133733
 H        -8.9382580696       -0.8357021977       -3.2092509954
 H        -8.6673785126       -2.1625013699       -4.0639344904
 H        -8.0739776647       -0.9047123604       -5.6969922242
 H        -6.4610811758       -0.7663359773       -5.0696019569
 H        -4.6920546328       -0.3372280908       -4.1406945806
 H        -3.7201670254        0.6150687388       -2.8723123005
 H        -3.7958697832        1.1350019054       -4.6034343743
 H        -5.3390659434        1.0586528719       -6.4270250541
 H        -5.2018197930        2.8088628832       -6.2717720312
 H        -6.6960813325        2.1599819904       -6.9508131283
 H        -6.5134012107        4.2044419351       -4.2241845146
 H        -7.9587578330        3.2480974041       -3.7468822182
 H        -7.6188972544        3.7462743426       -5.2750162971
 H        -5.8525249508       -3.2621761138       -0.3499795365
 H        -6.1525064174       -4.0730306885       -1.8206578446
 H        -7.1751746649       -4.3468411060       -0.4828879475
 H        -9.7231078320       -2.5569570520       -0.6247683177
 H        -9.1236421823       -4.0170441318       -1.0175010937
 H        -9.4732338176       -2.9463418701       -2.3542401431
 H        -7.6215809258       -1.5422046619        5.7003716960
 H        -8.4571146687        0.0468471719        6.1222937432
 H        -7.1680221304        0.0425139730        5.0383167836
 H        -9.9681155321       -1.7814520400        6.1064832808
 H       -10.6130543543       -2.4533504324        4.6127067197
 H       -11.3829948361       -0.9999213967        5.2812927769
 H        -8.6456049205        5.0207022240       -1.2340884907
 H        -7.3131310791        3.8805949089       -0.6220046425
 H        -7.4392371907        5.4158319056        0.0506828443
 H       -10.0264365912        6.5477230081        0.8248874641
 H        -8.6676267214        6.3128175520        1.9190123410
 H       -10.3134264316        5.6060271089        2.2459367187
 H       -14.5583960928        6.2725595604       -1.3072749167
 H       -14.3536740997        6.9353720523       -2.9281637722
 H       -14.7722246825        7.8893058714       -1.5673833536
 H       -12.5864570965        8.5141798106       -3.5453295709
 H       -11.3950881336        7.2899683510       -3.6145498575
 H       -11.0195098440        8.6131603728       -2.6280507967
 H       -14.4127862251       14.0299499224        1.7747743691
 H       -13.8510762874       13.7275352491        3.5978389637
 H       -15.6728849969       13.6549405078        2.9186284376
 H       -14.2327030067       11.6666815019        4.4395938081
 H       -13.9572788375       10.1722676033        3.9688531178
 H       -15.6320344731       10.8552165801        3.9474608045
 Na       -8.2972749637        1.8532413154       -1.9238046230
