117

 C       -13.4305971554        1.5647826874      -10.5167732844
 C       -13.0735051548        0.1311853146      -10.0054266342
 O       -13.8471430349       -0.6374891977       -9.5495680340
 C       -11.4808790780       -0.2661057076      -10.1755853755
 C       -10.9969829630       -0.5280781678       -8.7097154306
 O       -10.9364605249       -1.6348077691       -8.2116999750
 C       -10.6418259641        0.7044703768       -7.8831889128
 C       -10.6146307678        0.3867975418       -6.3576741607
 C       -10.4980436313        1.5741237897       -5.4258536143
 O       -10.4682963729        2.7630336808       -5.8179605870
 C       -10.6016892930        1.2576665788       -3.8825432136
 C       -10.1111959479        2.6457963589       -3.2443637630
 O        -8.9546221112        2.8469826965       -3.0089216990
 C       -11.1364368332        3.6904811117       -2.9041613722
 C       -10.4801358008        5.1007696794       -2.6454942963
 C       -10.0056995845        5.2646120552       -1.2374649637
 O        -9.9345738191        4.3265736165       -0.4718212707
 C        -9.4166943029        6.7677514876       -0.7674263775
 C       -10.2534533935        7.3267999034        0.4408912850
 O       -10.6836542949        6.5115326699        1.2743636222
 C       -10.4748320463        8.7625449487        0.6261938657
 C       -11.2683520093        9.0823549445        1.8452555464
 C       -10.6687835486        8.2596959492        3.1366017645
 O        -9.5723410208        8.6095140689        3.5258355572
 C       -11.5226552507        7.4583367829        4.1196964503
 C       -10.5733677583        6.3788936703        4.7682123083
 O       -10.1825424108        5.4648229178        4.0204300238
 C       -10.0762034308        6.5901931530        6.1907645033
 C        -8.8334514584        5.6614058768        6.4368606797
 C        -9.2643477213        4.3184042019        7.0017177231
 O       -10.4242556897        3.9711826787        6.9794154684
 C        -8.1879059020        3.3046629557        7.6284308876
 C        -7.7361330762        2.4456500705        6.3957008568
 O        -6.7088389753        2.6855018942        5.7100404293
 C        -8.6948873947        1.3622723476        5.7638670649
 C        -8.4019334610        0.8709519743        4.2932205348
 C        -8.2319813676        2.0098627708        3.2619022034
 O        -9.2618105267        2.5822121556        3.0144788066
 C        -6.9389235518        2.3385018396        2.4961022674
 C        -6.4089252537        3.6826450327        2.9553398583
 O        -7.0931397043        4.6828966105        2.7672224055
 C        -4.9155239742        3.9090559385        3.3614402470
 C        -5.8445186091        1.2223628078        2.7895354999
 C        -7.1381445118        2.5117467359        0.9664184746
 C        -7.0135465705        4.1437708445        8.1691224291
 C        -8.8819144966        2.5318130346        8.7535496387
 C       -12.1255097352        8.4143184201        5.2253394277
 C       -12.6135141276        6.6169363567        3.3400181105
 C        -8.0066589232        6.4593538544       -0.1632880624
 C        -9.4648658068        7.8570138008       -1.8405869188
 C       -12.0831983152        0.8714805427       -3.4311785474
 C        -9.6278887892        0.1606000080       -3.3381438173
 C       -11.4012625691       -1.5882632891      -10.9383856959
 C       -10.6306091716        0.8790812128      -10.9102227663
 H       -14.5525494540        1.5617220312      -10.6129672692
 H       -12.7654101204        1.7843664462      -11.3345003015
 H       -13.1782317729        2.1929400789       -9.5837853160
 H       -11.2752650629        1.5528853999       -8.0476138238
 H        -9.6718479654        1.1391696464       -8.2287397891
 H        -9.8070307527       -0.3279483730       -6.2412652725
 H       -11.4716160092       -0.3009568642       -6.1087497668
 H       -11.5990497711        3.2163274952       -1.9923779783
 H       -11.8288967255        3.8107097485       -3.7393289136
 H       -11.2690172947        5.8811697113       -2.7728811399
 H        -9.5988810219        5.1199929766       -3.2690518957
 H       -10.9050664385        9.2127226237       -0.1956406725
 H        -9.4371490393        9.2221661994        0.6301736136
 H       -12.3638619200        8.8382561954        1.6449986020
 H       -11.0688515970       10.1203061582        2.1273496422
 H       -10.9184992073        6.4224266768        6.9273469087
 H        -9.7249733007        7.6386325671        6.3131501011
 H        -8.0893635218        6.0760735411        7.1371992054
 H        -8.2659632430        5.5945243875        5.4439608198
 H        -9.6679137967        1.8735603053        5.7770702012
 H        -8.8266821935        0.4797068438        6.3851237963
 H        -9.2755888328        0.1662948004        4.0975617433
 H        -7.4374258865        0.2442058680        4.3251812000
 H        -4.9497845561        4.7255125123        4.0240148104
 H        -4.4068915947        4.0540630836        2.4272904217
 H        -4.4773997149        2.9684021351        3.7308345767
 H        -6.1780552530        0.2987414007        2.3846138979
 H        -5.7193943925        1.0557421937        3.8581054421
 H        -4.9194232371        1.5963808073        2.3646651288
 H        -6.2804053858        2.0686815774        0.5154397969
 H        -7.2754363504        3.5564669547        0.7061890168
 H        -8.0142957289        2.0561153984        0.4874801924
 H        -6.3503728468        4.5122919679        7.3652583526
 H        -6.3362983881        3.6256156674        8.8528378414
 H        -7.3030265546        5.0489832550        8.7594521353
 H        -8.5835336283        1.5839592036        9.0204691671
 H        -9.8958567426        2.3466992146        8.4471924265
 H        -8.8354661070        3.1167633549        9.6318223590
 H       -12.8353818947        9.0948153158        4.7422817976
 H       -11.2946799903        8.9195530208        5.7334842382
 H       -12.6655986968        7.9178004391        6.0534457216
 H       -12.1595086199        5.9429165448        2.5670447764
 H       -13.3547042830        7.2879460365        2.8304189607
 H       -13.3370891386        6.1438074196        3.9736418810
 H        -7.5836444959        7.3780473328       -0.0059635528
 H        -7.3122385875        5.9290772790       -0.7774648086
 H        -8.0907851676        5.8322191836        0.7619951036
 H        -9.1208252769        7.5169311458       -2.8157707514
 H        -8.8905250110        8.7127650615       -1.4782811016
 H       -10.3776122493        8.3316888013       -2.0196060089
 H       -12.3682172203        0.0305301998       -3.9950631286
 H       -12.8637300900        1.6233908875       -3.6159483815
 H       -12.2144273695        0.6658979313       -2.3405618599
 H        -9.8495920748       -0.7707589919       -3.9449365611
 H        -9.7614204271       -0.1312750264       -2.2494202219
 H        -8.6253733366        0.4140438868       -3.6677087711
 H       -12.4311201553       -1.9720271227      -10.9970051908
 H       -10.8451514845       -2.3880440913      -10.5239309039
 H       -10.8893077866       -1.4097938437      -11.8956078266
 H       -10.4736723205        1.8213915784      -10.4130164425
 H       -10.9233897604        1.1588384533      -11.8799592491
 H        -9.5913937597        0.7192580712      -11.0069333707
 Na       -9.4558965056        4.6338644630        2.0278682936
