117

 C       -15.6326526930       12.6159464418       -0.5209808135
 C       -15.2598864262       11.8116712404        0.7079428115
 O       -16.1288156079       10.9983482933        1.1302537722
 C       -14.1103508353       12.2162597097        1.7156248753
 C       -12.7590775436       12.1634659272        0.8655541279
 O       -11.9626224442       13.0744126202        0.8228065597
 C       -12.3914669581       10.5871408354        0.3469589578
 C       -13.4401188220        9.6683164029       -0.4374187042
 C       -12.7583725299        8.3322715276       -0.4599557375
 O       -12.2046594534        7.9769501152        0.5441262311
 C       -12.7547228287        7.4124892735       -1.7562631774
 C       -11.9394741238        6.1762759173       -1.3858590804
 O       -10.7847321212        6.2029228381       -1.7362838592
 C       -12.4175132408        4.7920980583       -0.5296101213
 C       -11.4791326917        4.5263365575        0.6043471176
 C       -10.2034809363        3.8652406656        0.2193829391
 O       -10.2269063390        2.9899157134       -0.6108329839
 C        -8.8211330643        4.2724625596        0.8311387580
 C        -8.3869560223        3.3383250111        2.0669088554
 O        -7.2682002008        2.9078063239        2.2085556020
 C        -9.5680277854        2.7591512368        2.9345837768
 C        -8.9378331947        2.0309725720        4.1448946921
 C        -9.9599061362        0.8765140168        4.5580790111
 O       -11.1217621441        1.1650603471        4.5688113062
 C        -9.4395096525       -0.6211672392        4.7286322431
 C        -9.4561177681       -1.1237201622        3.3195915617
 O       -10.2864843623       -1.9091039245        2.9368389902
 C        -8.4806940726       -0.5614556095        2.1213681101
 C        -8.0921395360       -1.7944144122        1.3506455819
 C        -7.8783668297       -1.4395218959       -0.2093589363
 O        -8.1603214209       -0.3453248874       -0.6032462196
 C        -7.5028634601       -2.6271918016       -1.1900269938
 C        -7.1634388453       -1.9962588753       -2.6211963634
 O        -5.9983220526       -1.8353092567       -2.9270196407
 C        -8.3219440808       -1.6508529983       -3.6164360174
 C        -7.7527568090       -0.7303870377       -4.6810759801
 C        -8.0875589829        0.7469506115       -4.2574380904
 O        -9.0508377055        1.0027734266       -3.6143312975
 C        -6.9382791396        1.7548510721       -4.3962230862
 C        -5.8087085953        1.4293972233       -3.4052258249
 O        -5.9313356608        1.5496650473       -2.2253520780
 C        -4.4051544328        1.0934533589       -3.9071632935
 C        -6.6490137607        1.7975182249       -5.8752538067
 C        -7.4533627194        3.0782150553       -3.9189036308
 C        -6.3691622772       -3.5936456634       -0.6388895250
 C        -8.7318100166       -3.6109239582       -1.4536290327
 C        -8.1448446444       -0.6121034739        5.5341391177
 C       -10.5253496516       -1.3870194625        5.6789806504
 C        -7.7631525586        4.4809356150       -0.1785531021
 C        -8.9081157525        5.6771908856        1.4850037139
 C       -14.1599870950        7.0929278837       -2.1437987737
 C       -12.0112131991        8.1159202951       -2.9165141651
 C       -14.4229479385       13.6354115978        2.3958912032
 C       -14.0623599867       11.1481117205        2.7862746059
 H       -16.6624360396       12.5788207400       -0.5853836914
 H       -15.1220244073       12.1594012866       -1.3952724970
 H       -15.3586693014       13.7834255852       -0.3309503541
 H       -12.1921447774       10.0348857074        1.3335314377
 H       -11.4957427342       10.4676895772       -0.1842961531
 H       -13.7726898559       10.0841879899       -1.4611185264
 H       -14.3588428118        9.6953690306        0.3017273787
 H       -12.4136792258        4.0836789448       -1.3440460350
 H       -13.4333520529        4.8331891487       -0.1331129381
 H       -11.8629393175        3.7420630740        1.2426656493
 H       -11.3331657976        5.4274948285        1.2119973701
 H       -10.0767201438        2.0511598038        2.2362857050
 H       -10.2608349604        3.4965420245        3.3771229936
 H        -8.7966921628        2.7853607809        4.9636113160
 H        -7.8985535197        1.6954552769        3.9482263564
 H        -7.6499896094       -0.0694345373        2.5593140311
 H        -8.9060453524        0.1270702196        1.4172635031
 H        -8.9653910535       -2.4235635684        1.4530445071
 H        -7.2184162863       -2.2194275785        1.8023114791
 H        -9.1605152684       -1.3310689343       -3.0910176340
 H        -8.6145706816       -2.5818428798       -3.9567906982
 H        -8.2356706999       -0.8881156106       -5.6207778842
 H        -6.7164752439       -0.9281366625       -4.8325216227
 H        -4.1620565788        0.0129922257       -3.9802519749
 H        -3.5984075639        1.5609283567       -3.2454325858
 H        -4.3202390199        1.5761992712       -4.8877000022
 H        -6.2573654676        0.8435327054       -6.2457629028
 H        -5.8782458552        2.6671402390       -5.8154779730
 H        -7.5049158311        2.0377224908       -6.4916382149
 H        -7.5032015091        3.7129642171       -4.7665324732
 H        -6.8186917043        3.5609867704       -3.1059785414
 H        -8.3974549136        2.9852947388       -3.4610642927
 H        -5.4769494991       -3.0696449043       -0.4012470133
 H        -6.1063434041       -4.3386990217       -1.4199565361
 H        -6.5743919823       -4.1141985095        0.2504359779
 H        -8.7112440722       -4.5265679828       -0.8669897142
 H        -8.8403989139       -3.9131806388       -2.5214335914
 H        -9.5925413956       -2.9586440455       -1.1322753142
 H        -7.6573041039       -1.6074111521        5.5000626056
 H        -8.3201642442       -0.3715446936        6.5812197643
 H        -7.4433439407        0.1043742942        5.1178619365
 H       -10.4342660874       -2.3849916798        5.3810916023
 H       -11.5077840387       -0.9840021827        5.4159291919
 H       -10.5203737858       -1.2271668417        6.7892613060
 H        -7.7886800361        5.4817628894       -0.6687631354
 H        -7.6505532825        3.5902248195       -0.8823007364
 H        -6.8461411736        4.5767567401        0.4425524831
 H        -9.4008491455        6.2895084391        0.8004574218
 H        -7.8256880489        5.9973351728        1.4232339507
 H        -9.2779046033        5.8071646439        2.4771099284
 H       -14.9296434678        7.2371077882       -1.3505670777
 H       -14.3077101034        6.0069626374       -2.4057279676
 H       -14.4433137677        7.6946816509       -3.0737303172
 H       -12.3548100511        9.0966382429       -3.0222599222
 H       -12.0010126897        7.6390429796       -3.8743559947
 H       -10.9509080655        8.2747917869       -2.7070699582
 H       -14.9782530003       14.3184442971        1.6729245635
 H       -13.6227528609       14.2426689818        2.9648796641
 H       -15.0889584693       13.4423242519        3.2554376096
 H       -12.9908382328       10.9730871505        3.0787484388
 H       -14.2446312714       10.1385256831        2.3595108117
 H       -14.5783623269       11.4103991857        3.6475704913
 Na       -8.6486608389        1.5433615129       -1.3285977215
