117

 C       -15.4478953241       12.7392312275       -0.9068118493
 C       -15.3867391216       12.0224999517        0.4430698908
 O       -16.3673750241       11.3970223088        0.9145503194
 C       -13.9411440544       12.2086202757        1.2860276232
 C       -12.7296775127       12.2400445504        0.2842475928
 O       -12.1326998823       13.3051386106        0.1138845729
 C       -12.2191692476       11.0086482233       -0.5853249565
 C       -13.1562944659        9.7703713467       -0.4898305920
 C       -12.4646161388        8.4691911505       -0.3647474902
 O       -12.1109841393        7.9803040174        0.6696276465
 C       -12.5749966173        7.6106087227       -1.7294367601
 C       -11.7027689993        6.3244626577       -1.2964285833
 O       -10.4821936097        6.2447373078       -1.4510279454
 C       -12.4082487409        5.3442633775       -0.2595516098
 C       -11.3713334371        5.0872957130        0.8947026326
 C       -10.1559376594        4.1287829810        0.4626225906
 O       -10.3098417230        3.1878818883       -0.2475105148
 C        -8.6607384979        4.5408590379        0.9945483574
 C        -8.3666112228        3.3783436671        1.8432900323
 O        -7.5468977686        2.5043101838        1.4720752048
 C        -9.2182420384        3.1238764730        3.1496487930
 C        -8.8728529977        1.9188032084        4.0049225173
 C       -10.0371740544        0.8314266352        4.1107980092
 O       -11.1771468396        1.2004470894        4.1528936155
 C        -9.6190744297       -0.5840311055        4.6787369633
 C        -9.4862540115       -1.6329881764        3.4301489071
 O        -9.8908904446       -2.7705914690        3.4250237384
 C        -8.6500683705       -1.1077018576        2.2073140396
 C        -8.2838594815       -2.2765693307        1.2743162516
 C        -7.8666365388       -1.7760016550       -0.1174117535
 O        -8.1551377281       -0.7113973355       -0.5672144406
 C        -7.4930306715       -2.9382160665       -1.1489992308
 C        -7.2783355630       -2.2405704204       -2.5844307938
 O        -6.1474471529       -1.8848145178       -2.8060045606
 C        -8.4305547150       -2.1127473714       -3.6947108835
 C        -8.1749757436       -0.9075138716       -4.5481878617
 C        -8.3446671282        0.5686612304       -3.7441495894
 O        -9.1196093612        0.7672146652       -2.8620099869
 C        -7.3023204525        1.6059635361       -4.2349822996
 C        -6.0752115834        1.4120992081       -3.0878937550
 O        -6.4433118857        1.4519605726       -1.9808694716
 C        -4.7462087149        1.4790718638       -3.7280573478
 C        -6.6612231492        1.4771980969       -5.6801901735
 C        -7.8530232120        3.0161380456       -4.0359521533
 C        -6.1289067897       -3.5103393745       -0.6356503416
 C        -8.4770436229       -4.0967860276       -1.1479059842
 C        -8.1895488148       -0.5807126857        5.2368318397
 C       -10.6515661041       -1.0231641201        5.7980240014
 C        -7.7466398910        4.5732816385       -0.3255778357
 C        -8.4410069582        5.9319909279        1.6907193930
 C       -13.9871783745        7.1023149363       -1.7916115245
 C       -12.2106181577        8.3920154781       -3.0114695952
 C       -14.0656153291       13.6134654063        1.8710361192
 C       -13.9611149931       11.2486256269        2.4696817225
 H       -16.3077586705       13.2883135966       -0.9590589104
 H       -15.3640255047       11.9335428891       -1.6778438362
 H       -14.6302101343       13.6399225380       -0.8145491925
 H       -11.1295722528       10.8020878189       -0.4495319821
 H       -12.2616533166       11.3084741320       -1.5868404334
 H       -13.8010500750        9.8628234108       -1.2654377305
 H       -13.8367727184        9.9323984800        0.3422957608
 H       -12.5210340954        4.3513449823       -0.7363701104
 H       -13.3255836656        5.6945670106        0.1428253398
 H       -11.9883201088        4.6186112923        1.7315070889
 H       -10.8978007492        5.9855355464        1.3551312494
 H       -10.3661627977        3.2304986742        3.1526000223
 H        -8.8860190595        3.9117974781        3.7438388559
 H        -8.8313690238        2.1717059329        5.0387524616
 H        -7.9132587438        1.5089897638        3.7761290870
 H        -7.6754641603       -0.6745131329        2.5096597018
 H        -9.1088855825       -0.1770412121        1.7847955238
 H        -9.2744423717       -2.7828299221        1.0699512589
 H        -7.5215463177       -2.8554401402        1.8306491652
 H        -9.4663071793       -2.1387964317       -3.1598336028
 H        -8.4922706994       -3.0592899524       -4.3258074414
 H        -9.0013579278       -0.8933216324       -5.2537672305
 H        -7.2384096544       -0.9745745965       -5.2439342556
 H        -4.4765483340        0.5004035725       -4.0883331260
 H        -4.0309563394        1.6908016210       -2.9464505499
 H        -4.6473293313        2.2021208535       -4.4722832422
 H        -6.1201518463        0.5763844710       -5.7898540908
 H        -6.0473340130        2.3906942310       -5.9349832219
 H        -7.4546372991        1.3889542172       -6.3825822504
 H        -8.7201961454        3.2256274346       -4.6945693493
 H        -7.1316074886        3.8166078049       -4.4700895082
 H        -8.0209126093        3.0921838116       -2.9388320296
 H        -5.2837939363       -2.7770373106       -0.5247826700
 H        -5.8323962417       -4.3966883189       -1.3152937364
 H        -6.1858826433       -3.8430706658        0.4422188681
 H        -8.8421625151       -4.2206813651       -0.1825056404
 H        -7.9893668552       -4.9401845665       -1.5786064328
 H        -9.3353059486       -3.7621763191       -1.7846079608
 H        -8.2380099157       -1.0608353151        6.2211983578
 H        -7.8869518906        0.4301043007        5.4790988627
 H        -7.4185927371       -1.0631398929        4.6543074236
 H       -10.9069238055       -2.0106194937        5.7115537178
 H       -11.5502268843       -0.3662711287        5.6169737824
 H       -10.3237411706       -0.7350272485        6.8367408001
 H        -7.3738631127        5.5653835690       -0.3729838414
 H        -8.3097949474        4.2153927732       -1.2037292990
 H        -6.8933321277        4.0256127112       -0.1513825859
 H        -9.4182862734        6.2147152051        2.0122459946
 H        -7.8438569711        6.7149431755        1.1569131626
 H        -7.8589992698        5.7495098548        2.6452681676
 H       -14.2208475171        6.4783302298       -0.9576679567
 H       -14.1885689599        6.3717136759       -2.5517148440
 H       -14.7878200184        7.8590331393       -1.9004355909
 H       -12.8382469740        9.3075349078       -3.0742092792
 H       -12.2028538221        7.9414425600       -4.0160365395
 H       -11.2862187087        8.9963028476       -2.8892989160
 H       -13.8034242055       14.2318831043        1.0731310376
 H       -13.3403881600       13.7903662354        2.5914240147
 H       -14.9043179099       13.9464919114        2.3604241521
 H       -13.0571472572       11.3512280099        3.1470588702
 H       -14.2378671437       10.1464256645        2.4374388167
 H       -14.7421086073       11.6843186309        3.0559825015
 Na       -8.4666486546        1.7621195826       -1.0203055087
