117

 C       -15.4219530087       12.7892220682       -1.1019309875
 C       -15.2105824142       12.1683585519        0.2810028902
 O       -16.0711541595       11.5650223197        0.8854951121
 C       -13.9172029856       12.3475927989        1.1311109233
 C       -12.7108146670       12.3642495409        0.1378740333
 O       -12.1661555960       13.3683822535       -0.2022458272
 C       -12.3116504924       11.1235930187       -0.7172733459
 C       -13.2085569127        9.8999372481       -0.5847901723
 C       -12.5779688155        8.5576673565       -0.3786561015
 O       -11.9732788922        8.1689307265        0.5877885730
 C       -12.5953655018        7.5643272254       -1.5755359390
 C       -11.6123995996        6.3577107121       -1.1010303613
 O       -10.5148789924        6.2293398434       -1.5117964723
 C       -12.1607021459        5.2838212638       -0.1167589679
 C       -11.1994130617        5.0509640193        1.0051842456
 C       -10.0173689084        4.3206432279        0.4415292759
 O       -10.2457420793        3.2514965390       -0.0760748460
 C        -8.6379898728        4.6759097320        0.9073528299
 C        -8.2712105037        3.2310606909        1.7660727469
 O        -7.8678275011        2.2411066492        1.2689178164
 C        -9.0028147267        3.1865415146        3.1863325251
 C        -8.7813882216        1.8824331956        3.9189695080
 C       -10.0077303727        0.8621400088        4.1092320321
 O       -11.1331043839        1.2256351303        3.8308181430
 C        -9.5848702149       -0.5854921817        4.6270313145
 C        -9.4625981970       -1.7434868001        3.5215733093
 O        -9.8099897825       -2.8814266487        3.6623982845
 C        -8.7429441201       -1.2677285370        2.2239612665
 C        -8.3534454180       -2.4018915893        1.3094015121
 C        -8.1451200727       -1.9419713382       -0.1648913109
 O        -8.1042960581       -0.7085946734       -0.3831440847
 C        -7.5150108391       -3.0702170549       -1.1379045232
 C        -7.3301114356       -2.3206251909       -2.5726510503
 O        -6.2528253431       -1.8302160833       -2.8646921215
 C        -8.4563323023       -2.1803625339       -3.5551695401
 C        -8.3057030857       -0.8996497912       -4.4719501362
 C        -8.3965812879        0.4171418538       -3.7648594219
 O        -9.1862454266        0.5870360629       -2.8428623301
 C        -7.3703955600        1.4723489998       -4.1640043881
 C        -6.2702836887        1.5364040593       -3.0535006817
 O        -6.5676166988        1.4977429208       -1.8505014851
 C        -4.8725899165        1.5497960227       -3.5045561084
 C        -6.7850012132        1.2905280334       -5.6004568179
 C        -8.0172960546        2.9235886163       -4.1973967106
 C        -6.1103837302       -3.4604326752       -0.5722518278
 C        -8.2998878136       -4.4582730486       -1.2385013571
 C        -8.1376122307       -0.6605167015        5.2808386766
 C       -10.6721748582       -0.9617442488        5.6411191593
 C        -7.6172275205        4.8164828967       -0.3168190805
 C        -8.4782523477        6.0585040101        1.7696329980
 C       -14.0759077406        7.0960058379       -1.9237850376
 C       -12.1313577811        8.3685912606       -2.8307792761
 C       -14.0944431352       13.6859904263        1.8367180372
 C       -14.0265380983       11.3243912626        2.3529284524
 H       -16.4374390621       13.3679502847       -1.0524782327
 H       -15.5322596674       11.8542024440       -1.7261733103
 H       -14.7067605741       13.5410723996       -1.3641432253
 H       -11.2727895055       10.7988109857       -0.5067091375
 H       -12.2362656450       11.4349393379       -1.7249196125
 H       -14.0992443773       10.0012205757       -1.3171898761
 H       -13.8307171697       10.0971881649        0.3215584191
 H       -12.2391036430        4.3459520508       -0.6051948371
 H       -13.1084210040        5.6228120131        0.2859460342
 H       -11.7940076727        4.5842652821        1.8260389115
 H       -10.7724870523        5.9957768946        1.4570249829
 H       -10.1002387172        3.2849851399        3.0445441784
 H        -8.7551699641        4.0415713960        3.8586341157
 H        -8.3495530317        1.9968645267        4.9155270113
 H        -8.0751459054        1.2756065927        3.3843424450
 H        -7.9279760435       -0.6126302324        2.3836700982
 H        -9.4302749475       -0.5667766338        1.7774829018
 H        -9.2158775856       -3.0287083420        1.3415367948
 H        -7.4434192177       -2.8474493046        1.6799619415
 H        -9.3983950752       -2.4128754315       -3.0750429339
 H        -8.3222324880       -3.0135825082       -4.2501836498
 H        -8.9429805925       -0.9290871550       -5.3856560802
 H        -7.3365845316       -0.9069261236       -4.8329113353
 H        -4.5440895889        0.8383441962       -4.2128135519
 H        -4.3120176566        1.4849591180       -2.5795082007
 H        -4.5886348114        2.6381607853       -3.8951093271
 H        -6.2459753742        0.3189098000       -5.8219197804
 H        -6.0731531091        2.1813645477       -5.7998055671
 H        -7.6423539589        1.3711162262       -6.2822712024
 H        -9.0319588146        2.8343359347       -4.6000854802
 H        -7.6103296789        3.6536383892       -5.0149906734
 H        -8.0527420856        3.2907976704       -3.1401334209
 H        -5.2205236267       -2.8296567498       -0.6214155147
 H        -5.9525049965       -4.2948732147       -1.2228181731
 H        -6.0928732321       -3.7791189666        0.4783879538
 H        -8.6325321588       -4.6678413081       -0.2091574073
 H        -7.5833984194       -5.1734144450       -1.7165559097
 H        -9.1682759053       -4.3655180703       -1.8902948896
 H        -8.3636379515       -1.3247034302        6.0669723537
 H        -7.9307076717        0.2468972443        5.7751676969
 H        -7.3241975054       -1.0050941154        4.6975061608
 H       -10.5795400450       -2.0299033548        5.8930318169
 H       -11.7068858516       -0.7188625822        5.3277190673
 H       -10.4352928397       -0.3651531847        6.5236022840
 H        -7.0044570480        5.7035997452       -0.2876182969
 H        -8.2527239998        4.7052102754       -1.1466560129
 H        -6.9055404845        3.8929484347       -0.2677104690
 H        -9.3057199675        5.9850070836        2.4114741522
 H        -8.5869258111        6.9073848247        1.0458894142
 H        -7.5591504144        6.2327048444        2.2565784388
 H       -14.6796475837        6.3502655248       -1.3631073451
 H       -13.9427597597        6.4648712105       -2.9147901203
 H       -14.7280295355        7.9447527570       -2.2860604798
 H       -12.6359279169        9.2688973640       -2.9632355654
 H       -12.2133965490        7.8653442822       -3.8169345734
 H       -11.1365907845        8.8060357460       -2.7259571399
 H       -13.9238389357       14.5215265050        1.2011062897
 H       -13.5220544963       13.9230679115        2.7145495638
 H       -15.0622837091       13.8189509600        2.2400217163
 H       -13.0895467098       11.4974608817        3.0025483073
 H       -13.9664344144       10.2424941065        2.0348450313
 H       -14.8997262235       11.3705569577        2.9934839382
 Na       -8.4189728158        1.8729720312       -0.6139001806
