117

 C       -15.3508510178       12.8167267412       -1.1913180734
 C       -15.1939650556       12.2157055676        0.2462494184
 O       -16.1070350089       11.6252276453        0.6972279227
 C       -13.8378176827       12.5062741137        1.0194684160
 C       -12.6754163201       12.5276266146       -0.0038699136
 O       -12.2120154683       13.6024988354       -0.3406549401
 C       -12.4033755580       11.0672715691       -0.7000554936
 C       -13.4152961992        9.8595413120       -0.6067531872
 C       -12.6762218129        8.5523186296       -0.3777539363
 O       -11.8814573315        8.5252715504        0.5740262354
 C       -12.5797640773        7.4355175707       -1.6111483781
 C       -11.7082787672        6.3447646083       -1.1693967114
 O       -10.5599083788        6.3015543707       -1.5853895584
 C       -12.1926130171        5.3541910420       -0.0678313557
 C       -11.1802784617        5.1187785364        1.0659025536
 C        -9.8924831312        4.3687949731        0.5995018196
 O       -10.1329262626        3.3530387534       -0.0950131837
 C        -8.4630812484        4.5596881039        0.9970365925
 C        -8.3645251556        3.3527101178        1.8649206806
 O        -7.9678833274        2.2898327479        1.4245626362
 C        -8.8598044427        3.2562875029        3.2128902930
 C        -8.5888534850        1.8434268359        3.7793891186
 C        -9.7799088124        0.8553306869        3.9694081295
 O       -10.8925780633        1.1383835324        3.5637356038
 C        -9.5785779240       -0.5699218064        4.6881972025
 C        -9.5031620614       -1.6851344432        3.5502211713
 O        -9.7473098974       -2.8143892650        3.9270525120
 C        -8.9486622466       -1.3992567849        2.1568020934
 C        -8.5188075654       -2.5796404400        1.3186021961
 C        -8.1115654946       -2.1202913775       -0.1303621866
 O        -8.1200315922       -0.9196483457       -0.3642573836
 C        -7.4382172553       -3.1683704448       -1.1827453193
 C        -7.3268927519       -2.3901998672       -2.5256754012
 O        -6.3061681636       -1.8057884545       -2.8168148345
 C        -8.6009509530       -2.3090000038       -3.4140550223
 C        -8.4054481929       -1.1785157036       -4.4587314598
 C        -8.4194826215        0.2300447819       -3.6795915454
 O        -9.2363923516        0.5062312050       -2.7671486429
 C        -7.5091467627        1.4965626353       -4.1498555075
 C        -6.3235959940        1.6327384968       -3.0182629733
 O        -6.6663675103        1.6255505844       -1.8134424247
 C        -4.7848061214        1.5993451949       -3.2727087817
 C        -6.9160169393        1.1415694295       -5.5196580216
 C        -8.2941125857        2.8963039969       -4.2456228257
 C        -6.0626660367       -3.3023475475       -0.6009409708
 C        -8.2772190866       -4.4440598601       -1.3552315723
 C        -8.1968075526       -0.6916992026        5.3999610861
 C       -10.7582368563       -0.9796637025        5.5372555580
 C        -7.4502912488        4.8946395036       -0.2722236647
 C        -8.4334289788        5.8869983339        1.8525850866
 C       -14.0532731256        7.0515405889       -2.0343408757
 C       -11.8746602977        8.1650167097       -2.6912819071
 C       -13.9972256271       13.9884323037        1.7524426242
 C       -13.8022255481       11.4430404199        2.1739951027
 H       -16.3004565784       13.4420582713       -1.1921623888
 H       -15.5055509516       11.9049643824       -1.7511342081
 H       -14.6181187985       13.4556514986       -1.5157020588
 H       -11.5125600528       10.6232720543       -0.3017276493
 H       -12.0767712912       11.2238139650       -1.7868844469
 H       -14.0906443329        9.9103363247       -1.5621346940
 H       -14.2722885577        9.9789580482        0.0867015446
 H       -12.4219179107        4.3932606295       -0.5036527364
 H       -13.0773696009        5.8102854211        0.4056674311
 H       -11.7470146446        4.6310447531        1.8500955763
 H       -10.9156292356        6.0377128661        1.5476164325
 H        -9.9173891043        3.3842257869        3.1953676197
 H        -8.5516396854        4.0833512137        3.9598832008
 H        -8.1672534629        1.9119976175        4.8219209707
 H        -7.8494355676        1.2484023227        3.2124195075
 H        -8.0906672014       -0.7641113089        2.3005975735
 H        -9.5877692691       -0.7107548364        1.6674990403
 H        -9.2892123150       -3.2957534297        1.3502166226
 H        -7.5993427983       -2.9453166904        1.7226136410
 H        -9.3426881649       -1.9730761833       -2.7591065100
 H        -8.9519667537       -3.2320192609       -3.8163635190
 H        -9.1964992262       -1.1479088620       -5.2040249356
 H        -7.4917789780       -1.2023821455       -4.9784354199
 H        -4.3583292813        1.1583027898       -4.2387956753
 H        -4.2364197613        1.2418823843       -2.3512274522
 H        -4.4896509235        2.6674808697       -3.3198396108
 H        -6.3243448747        0.1597116165       -5.3498498684
 H        -6.1801544488        1.8484583074       -5.8570342717
 H        -7.7431092619        0.9713072329       -6.3174925432
 H        -9.3103472288        2.6574763217       -4.6412604514
 H        -7.9697228384        3.5008926336       -4.9989750649
 H        -8.4147052218        3.3475753438       -3.2458263853
 H        -5.5088118295       -2.3801869972       -0.5184482223
 H        -5.4877266645       -3.8657086356       -1.2663944118
 H        -6.0865250859       -3.6805687520        0.4189925982
 H        -8.3170747651       -4.8448228696       -0.2934317154
 H        -7.6096357554       -5.0100996171       -2.0404464247
 H        -9.2578039662       -4.3616748165       -1.7969632763
 H        -8.1559899117       -1.7088066220        5.6768787954
 H        -8.1919072847       -0.0892343848        6.2999930778
 H        -7.4107327066       -0.4236779348        4.6979033730
 H       -10.3639047463       -1.8709337748        6.1578450848
 H       -11.6853646412       -1.2804451375        5.0454868360
 H       -10.8256999336       -0.1934074104        6.2500181286
 H        -6.7598331060        5.7703612625       -0.1283420312
 H        -8.2786796880        5.0844346807       -0.9545056849
 H        -6.9051760648        3.9652724160       -0.6070571559
 H        -8.7637909017        5.6462310969        2.8787861515
 H        -9.1917629345        6.3816673282        1.3800572131
 H        -7.6598537232        6.5753775470        1.7030481968
 H       -14.7334874461        6.4600631539       -1.3282112403
 H       -14.1041629786        6.3613951907       -2.9229963714
 H       -14.5872277672        7.9652524406       -2.3947667208
 H       -12.2065116155        9.0745582185       -3.1192041739
 H       -11.8772458460        7.4891695400       -3.5204735144
 H       -10.8862335903        8.3916055296       -2.4385407012
 H       -14.0484882124       14.9225130860        1.1215527659
 H       -13.4010760411       14.3531446540        2.6041029773
 H       -15.0259365631       13.9130024438        2.2724215240
 H       -13.0483410196       11.5757252102        2.9427739595
 H       -13.5306030667       10.5478187545        1.6498214108
 H       -14.7810977564       11.1343949624        2.6751439117
 Na       -8.5207308013        1.7612208674       -0.6222266078
