117

 C       -15.5936343419       13.2507582505       -1.3215637797
 C       -15.2131884484       12.4969425945        0.0736036231
 O       -15.9659949215       11.7793944653        0.6097407520
 C       -13.8133961784       12.8925142355        0.6954124487
 C       -12.6343469254       12.6979273884       -0.3608601573
 O       -12.1818855718       13.6736543822       -0.9067732094
 C       -12.1923090311       11.3255807138       -0.8410785442
 C       -13.1367105215       10.1129636677       -1.0575132087
 C       -12.5149499371        8.7858122379       -0.6245929121
 O       -12.0599095361        8.6016290993        0.5144711531
 C       -12.4643764184        7.5514533573       -1.7650673394
 C       -11.5908496641        6.3159048186       -1.1879661540
 O       -10.5003713439        5.9718331303       -1.5109351746
 C       -12.2751988536        5.6427997826        0.2400617479
 C       -11.2959998540        5.1561915912        1.3740912805
 C        -9.9318290238        4.3697668497        0.7311066033
 O        -9.9751356436        3.6642301837       -0.2615567924
 C        -8.3965107149        4.5474738311        1.2632595276
 C        -8.2160727880        3.1207376113        2.0602893882
 O        -7.6392066161        2.1824323411        1.4920628757
 C        -8.3490835390        3.2834323136        3.6385401824
 C        -8.3001970756        1.8622509062        4.3816354502
 C        -9.1720967137        0.6953926517        3.8312068428
 O        -9.8813169140        0.9787552378        2.8520469869
 C        -9.4842961865       -0.6148670175        4.5890378175
 C        -9.4800026585       -1.8809040899        3.6602884954
 O        -9.4007371186       -3.0338270568        4.0643986107
 C        -9.5339188135       -1.6019825515        2.1388888252
 C        -8.9363518497       -2.7607701202        1.2361874629
 C        -8.1862045773       -2.2128513628       -0.0098535914
 O        -8.4427466351       -1.0135948421       -0.2696495737
 C        -7.3607455866       -3.1614056659       -1.0171552255
 C        -7.4055236717       -2.4916021578       -2.4127586260
 O        -6.5368411256       -1.7498895767       -2.8268495568
 C        -8.7440875310       -2.5558046770       -3.0839746112
 C        -8.7710673786       -1.4661306463       -4.2503416788
 C        -8.5909867167        0.0019374115       -3.5794801617
 O        -9.4575963604        0.1500253205       -2.6747519596
 C        -7.6634986973        1.2460012547       -4.0349567270
 C        -6.6260896198        1.6615751348       -2.9532453663
 O        -6.9866448179        2.2128937115       -1.8575540987
 C        -5.0751620988        1.6900671206       -3.2988564723
 C        -7.0048145577        0.7629972150       -5.3077252881
 C        -8.6214562387        2.4259983013       -4.2316192568
 C        -5.9043428780       -3.3105302064       -0.6193118700
 C        -7.9047347981       -4.6321711709       -1.0979474223
 C        -8.4430254017       -0.8748265114        5.7970725732
 C       -10.8863341772       -0.3902033675        5.2299179974
 C        -7.3555106512        4.7215434898        0.0324391650
 C        -8.4825071803        5.7891885238        2.2275299282
 C       -13.8380031795        7.1351673170       -2.1827870343
 C       -11.6562411269        8.0613462528       -3.0042644300
 C       -13.9554179010       14.4005972488        0.9299132305
 C       -13.7396814243       12.1514757923        2.1358013897
 H       -16.7687793958       13.2145554608       -1.3731450726
 H       -15.1332471887       12.5498629284       -2.1112408234
 H       -15.3259300511       14.2569854650       -1.4590508773
 H       -11.4126869855       10.8499602399       -0.2775753508
 H       -11.6809177845       11.5670320187       -1.7248505633
 H       -13.4104709126       10.1516421770       -2.1785123588
 H       -14.1234199627       10.1925398602       -0.6649514744
 H       -12.8580058418        4.8838933428       -0.2389937220
 H       -12.9334817977        6.4132955961        0.6735105465
 H       -11.6744142726        4.4740973157        2.2151729409
 H       -10.9219266657        6.0356602406        1.9880722401
 H        -9.3020156144        3.7652221327        3.7840644055
 H        -7.6406278794        4.0468235494        4.0692780375
 H        -8.7195674321        1.9984918419        5.3923891544
 H        -7.2956281542        1.5493435549        4.5158344490
 H        -8.8237370744       -0.7648780295        1.9248029471
 H       -10.5119518383       -1.1619891520        1.8077416939
 H        -9.6945303832       -3.4370944393        0.7808834469
 H        -8.2794431257       -3.3642174246        1.9438812512
 H        -9.4744261013       -2.2305070105       -2.3038340870
 H        -9.0815175431       -3.5752476795       -3.4987049688
 H        -9.7646022169       -1.4070159600       -4.8451358663
 H        -7.9901415561       -1.5821485941       -4.9242865937
 H        -4.9030292593        2.2120004703       -4.2421194799
 H        -4.7564709488        0.6997661242       -3.4186750772
 H        -4.4206019411        2.0441808155       -2.4954964477
 H        -6.3251676773       -0.0378828049       -5.0323298322
 H        -6.2898344001        1.4020878786       -5.7321782564
 H        -7.7203851750        0.5355797768       -6.0901490518
 H        -9.2750794005        2.4667972782       -5.1487508790
 H        -8.0347746592        3.3583792936       -4.1775031015
 H        -9.4233952796        2.3235476300       -3.4085332691
 H        -5.3261947225       -2.3354925278       -0.4272444938
 H        -5.3470202285       -3.6059410922       -1.5063352592
 H        -5.8156060393       -4.0660938015        0.2690228383
 H        -7.4975202720       -5.0965768208       -0.1762746697
 H        -7.5785892298       -5.1773967830       -1.9883262085
 H        -8.9213247309       -4.5047814082       -1.0353152248
 H        -8.6397683459       -1.8974468486        6.0911476997
 H        -8.6585566968       -0.1999830327        6.6326989551
 H        -7.4296315494       -0.7691578234        5.3750329458
 H       -11.1709768373       -1.3439314511        5.7850276190
 H       -11.5552889589       -0.3348730311        4.4162922192
 H       -10.7867604205        0.3269619681        5.9818483904
 H        -6.5865734930        4.1202919474        0.4299753984
 H        -6.9356810399        5.6372743368        0.1584645256
 H        -7.6139328252        4.4494259583       -1.0345187041
 H        -9.2849023691        5.5928662046        2.9783101123
 H        -8.4916819218        6.6972607324        1.6262018860
 H        -7.5222820619        5.7753436201        2.7442528169
 H       -14.4191004611        6.9403220254       -1.2937068136
 H       -13.7877885643        6.1959852659       -2.7547400512
 H       -14.4741334192        7.8047080488       -2.6910841562
 H       -12.2615443181        8.6265201413       -3.7342729944
 H       -11.2969498983        7.2954844154       -3.7652286482
 H       -10.8735893871        8.8146038600       -2.7262266279
 H       -14.6149899467       14.8686374811        0.3076805200
 H       -13.1133658258       14.9560450613        0.8521586070
 H       -14.3315349938       14.6753215094        1.8792910331
 H       -13.3897765839       12.9226336155        2.8318214200
 H       -13.1680204223       11.2136329132        2.1706000551
 H       -14.7945949313       11.8793899344        2.4662001973
 Na       -9.0228969814        1.3595057234       -0.5051020151
