117

 C       -13.4837912122        1.5040288840      -10.4678403294
 C       -12.9954466745        0.1259214796      -10.0530039156
 O       -13.6742207552       -0.7318763188       -9.5195251093
 C       -11.5566396495       -0.2590866773      -10.1728112022
 C       -11.0258247462       -0.4763070145       -8.6823561111
 O       -10.8906681068       -1.6257532211       -8.2834087243
 C       -10.6125647658        0.7055923283       -7.7805928093
 C       -10.5162429177        0.3485016993       -6.3008550648
 C       -10.5452510573        1.5292438065       -5.3920430094
 O       -10.5993245284        2.6626892127       -5.8046951488
 C       -10.5710357837        1.2235541069       -3.8632900589
 C       -10.2018572095        2.5623684099       -3.1299194453
 O        -9.0126647785        2.8134108948       -3.0621010488
 C       -11.3329976504        3.6855611645       -2.7999530406
 C       -10.5535197075        4.9902862845       -2.5917256053
 C       -10.0803681596        5.1719121578       -1.1542136041
 O        -9.9861522910        4.2745851698       -0.3643427638
 C        -9.4550747743        6.6690034695       -0.7712423436
 C       -10.2433404300        7.2700796300        0.4134633547
 O       -10.7245931801        6.5206459724        1.2570199974
 C       -10.4222578806        8.8263175297        0.6504460454
 C       -11.3309224510        9.0500605741        1.8935377901
 C       -10.7729765087        8.4761324082        3.1789251063
 O        -9.6623821769        8.6809408499        3.5792710075
 C       -11.6291158499        7.4759877458        4.0982154176
 C       -10.5683973865        6.3453833508        4.6850160021
 O       -10.1586475771        5.4357158394        4.0134462588
 C       -10.0317271791        6.5780681909        6.0158202020
 C        -8.7870818329        5.7392699172        6.3958088933
 C        -9.1563365358        4.3627731189        6.9403035128
 O       -10.3082636152        3.9698090602        7.0169379137
 C        -8.0692896062        3.4004356921        7.5186580972
 C        -7.7226649381        2.5559675328        6.3290359366
 O        -6.6693492293        2.7626726722        5.7134152124
 C        -8.8265990147        1.5254731742        5.8096621978
 C        -8.3182738278        0.9472136896        4.4097323447
 C        -8.2739564917        2.0084455249        3.3028728102
 O        -9.2741826957        2.6147484813        3.0202903217
 C        -6.9175879010        2.3603578561        2.5760622478
 C        -6.4369068521        3.8152684287        2.9315664616
 O        -7.1726685821        4.7989584967        2.7820569760
 C        -4.9396329438        3.8953938649        3.2817215923
 C        -5.8111752134        1.1729319782        2.6420572008
 C        -7.1350128175        2.4632586572        1.0136283782
 C        -6.7812985449        4.1775399951        7.9399354378
 C        -8.6496063067        2.7897812257        8.8226094530
 C       -12.0801697012        8.3363500395        5.2181734661
 C       -12.7944423010        6.7239930822        3.3418042356
 C        -8.0378221758        6.4659008021       -0.1409111314
 C        -9.4586658561        7.6654153530       -1.8917990792
 C       -11.9815215423        0.8250230780       -3.3626451169
 C        -9.6799970137        0.1576447655       -3.3147555412
 C       -11.3659087435       -1.5608719093      -11.0354329329
 C       -10.6488529984        0.7520099561      -10.8974290240
 H       -14.5140644058        1.4274001519      -10.2610443327
 H       -13.1036286838        1.6890074351      -11.5216915768
 H       -13.0532634694        2.2235775718       -9.7189170078
 H       -11.2781452998        1.5436023531       -7.7739717847
 H        -9.7449713533        1.1771909735       -8.2136376529
 H        -9.6881515258       -0.2965162768       -6.1401625470
 H       -11.3578928066       -0.3415454184       -6.1231351009
 H       -11.9744445824        3.4041206983       -1.9455208180
 H       -11.8608027026        3.8150275484       -3.7032992678
 H       -11.2070151941        5.8475468864       -2.9033386643
 H        -9.5981358345        4.8329985373       -3.1111733049
 H       -10.9038101482        9.3139254889       -0.2118463756
 H        -9.4601962521        9.3126656853        0.7160923113
 H       -12.2346364608        8.4859184965        1.7173299338
 H       -11.5063369543       10.1149714562        2.0626163097
 H       -10.8702106376        6.2424478249        6.6417985284
 H        -9.8130216873        7.6154729212        6.2624364950
 H        -8.2357746056        6.2242400736        7.1977354160
 H        -8.0922723387        5.6650232905        5.5529368752
 H        -9.7663897017        2.0745211652        5.6656583457
 H        -9.1030118784        0.6955443393        6.5119628341
 H        -9.0177479328        0.1503534220        4.2688399592
 H        -7.3232132658        0.5224336970        4.4892589266
 H        -4.6098415108        4.7193898460        3.8452900246
 H        -4.4780952632        3.6522485444        2.3081824561
 H        -4.7891854921        2.9563226539        3.7509687721
 H        -6.3608605588        0.2951421584        2.2212661296
 H        -5.4137234531        0.8818914593        3.5839141740
 H        -5.0565134510        1.4452984850        2.0342029470
 H        -6.1531783187        2.1948523465        0.4652818308
 H        -7.5164927727        3.3554143737        0.6947362317
 H        -7.8331886569        1.7181328944        0.6797759883
 H        -6.2640125470        4.8073688260        7.2391749745
 H        -5.9912659650        3.4696187918        8.2693597475
 H        -6.9291122599        4.7896848573        8.9048399223
 H        -8.2017503448        1.8238416308        9.1047152282
 H        -9.6082609690        2.4362869127        8.6626886229
 H        -8.5002597377        3.3979059932        9.6935381153
 H       -12.8460742770        9.0278129410        4.8061222641
 H       -11.2569683240        8.7886525443        5.6958092323
 H       -12.6089834284        7.7977694780        6.0579544514
 H       -12.3770427974        5.9927353252        2.7425766934
 H       -13.4166635716        7.3706274896        2.7324460038
 H       -13.6246230232        6.3556673181        3.9618795621
 H        -7.6963531296        7.4361802044        0.1873272076
 H        -7.3338326769        6.3604815570       -0.9400870668
 H        -7.8844523118        5.6334173513        0.5326258446
 H        -8.9823161436        7.2746030930       -2.7722814370
 H        -9.0340645979        8.6001177856       -1.6050745286
 H       -10.4801864179        8.0171753586       -2.1223737398
 H       -12.2761672838        0.0865713176       -4.0858011251
 H       -12.6725219060        1.6025214543       -3.5409755282
 H       -12.1757086601        0.4788324377       -2.3633476692
 H       -10.1338416787       -0.7803889935       -3.6658463733
 H        -9.6611432604        0.1105310319       -2.2414440283
 H        -8.7523296222        0.1554472725       -3.8752356931
 H       -12.2854274404       -2.2052727015      -10.9634805240
 H       -10.5928293997       -2.2390310499      -10.7447786835
 H       -11.0669529533       -1.2319361055      -11.9861375466
 H       -10.6331150049        1.7564520972      -10.6414868260
 H       -10.7862345695        0.8015592396      -11.9525339235
 H        -9.5794609460        0.6203044639      -10.7794704641
 Na       -9.4300575465        4.5641827384        1.9787491560
