117

 C       -15.9668825506       13.2278383630       -1.4322077809
 C       -15.3863525658       12.7164571605       -0.1323559043
 O       -15.8973088901       11.7389759009        0.4389115222
 C       -13.7919643711       13.2764369493        0.3407520057
 C       -12.6358788884       12.9531509002       -0.6609427841
 O       -12.1407871335       13.8632296439       -1.2730274145
 C       -11.8967656716       11.3982657973       -0.7628294730
 C       -12.8937086469       10.2248266662       -1.1560914705
 C       -12.3763141934        8.8327248600       -0.7047330248
 O       -12.1649030369        8.5775312883        0.4281765409
 C       -12.2979191538        7.6688447214       -1.7274511154
 C       -11.4684529548        6.4513103949       -1.0728536570
 O       -10.4138030866        6.0934479261       -1.5654039555
 C       -12.0333747481        5.7663834516        0.1954656771
 C       -11.0570438632        5.2059535783        1.2143170073
 C       -10.0038122240        4.1351881746        0.7008578405
 O       -10.0694966452        3.2534100650       -0.1148770256
 C        -8.5291581215        4.3979023506        1.4778481796
 C        -8.2048965332        3.1446487615        2.2226212990
 O        -7.6584194803        2.2366634186        1.6237052421
 C        -8.1166210429        3.0803277160        3.8336612942
 C        -7.9740125972        1.7270413247        4.4980436287
 C        -8.9110412849        0.7059505964        3.7464244597
 O        -9.4488698332        0.8700419200        2.6760083212
 C        -9.4368151774       -0.5628040588        4.5262361737
 C        -9.4090404703       -1.8636680343        3.5968688798
 O        -9.0713287124       -2.8824601652        4.1260087718
 C        -9.7613978528       -1.8218239544        2.0835636494
 C        -8.9893472554       -2.8830373224        1.2597497336
 C        -8.2647446926       -2.2852274165        0.0073183057
 O        -8.2914314431       -1.1047793637       -0.2073499406
 C        -7.4768325488       -3.1568265759       -0.9368474757
 C        -7.4831325675       -2.5982447222       -2.3511505373
 O        -6.5887026624       -1.8274045059       -2.6670034310
 C        -8.7066679807       -2.6656648613       -3.2341475176
 C        -8.8487267322       -1.4734614232       -4.1640086213
 C        -8.9268197276       -0.1065373424       -3.4096793104
 O        -9.6097886351        0.1823644785       -2.4712328933
 C        -7.9238673539        0.9999370766       -3.9980199814
 C        -6.9427421900        1.4991682728       -2.8599466954
 O        -7.5139336780        1.9649142339       -1.9190837582
 C        -5.5306477509        1.5803589108       -3.1738865511
 C        -7.1692380949        0.5870973589       -5.2836112069
 C        -8.7741418406        2.2602620127       -4.5100878182
 C        -6.0480129291       -2.9766953136       -0.2945705660
 C        -7.9149135976       -4.6352875501       -0.8187567536
 C        -8.6625799233       -0.9355617720        5.8505566522
 C       -10.9862159860       -0.2885594821        4.8793570132
 C        -7.4504097104        4.6955325313        0.3132474105
 C        -8.3081624547        5.6213731343        2.4624454363
 C       -13.7164147464        7.0858237097       -2.0760993435
 C       -11.5928782024        7.9681997251       -3.0670933651
 C       -13.8415339905       14.7834873922        0.5855147289
 C       -13.4994093734       12.5428991123        1.6694119548
 H       -16.7998381234       12.5170969306       -1.6875993718
 H       -15.2130303867       13.1728130196       -2.1540144476
 H       -16.4040307944       14.2037344801       -1.3375864521
 H       -11.3101146222       11.0664632780        0.1304582831
 H       -11.1023488212       11.5556865500       -1.5444211617
 H       -13.0016208878       10.3642591145       -2.2180737503
 H       -13.9680930189       10.4571278952       -0.7845635860
 H       -12.5963890416        4.9232232104       -0.2778784525
 H       -12.7101280572        6.4529867175        0.6824830890
 H       -11.6438711746        4.7358800430        1.9981522691
 H       -10.4845134673        5.9594124065        1.7278656466
 H        -8.8769606695        3.7538626963        4.3209112248
 H        -7.1833369738        3.5786247978        4.0217962611
 H        -8.3344602206        1.8645701465        5.5241912842
 H        -6.8629908198        1.5264402297        4.4913472047
 H        -9.5611870067       -0.8813041318        1.6176270019
 H       -10.8114963219       -2.0141640575        1.9220015008
 H        -9.6439997070       -3.6542464072        0.9250974721
 H        -8.3146246334       -3.3589961314        1.9046147451
 H        -9.5924070676       -2.7732431469       -2.6481157789
 H        -8.6208651520       -3.3972979044       -3.9477882302
 H        -9.7297612170       -1.4700401429       -4.7254379990
 H        -7.9792683686       -1.4595388107       -4.8759334774
 H        -5.3394082189        2.6668806383       -3.1030531599
 H        -5.1508333972        1.2412253699       -4.1603980305
 H        -4.8882092288        1.0956272822       -2.3557465723
 H        -6.3015268205       -0.0830757389       -5.1939205152
 H        -6.6399733981        1.5092727574       -5.7582024566
 H        -7.8780004608        0.2805072239       -6.0815114187
 H        -9.3824877315        1.9371211952       -5.3206793751
 H        -8.0618702977        3.0969940554       -4.8020525661
 H        -9.5070029131        2.5943943702       -3.8285029736
 H        -5.6733015750       -2.0500518075       -0.6530473505
 H        -5.2502753645       -3.6896671463       -0.5282870382
 H        -6.2072796001       -2.9334189672        0.7224730445
 H        -8.0687487383       -4.9302567032        0.2010864718
 H        -7.0718680077       -5.2492504688       -1.1597261433
 H        -8.8468043374       -4.6476182680       -1.4960347785
 H        -9.4009642080       -1.2781908926        6.5542766248
 H        -8.1639135850       -0.0885197790        6.2173434645
 H        -8.0055007207       -1.7254476044        5.6444376038
 H       -11.5912958540       -1.1104724069        4.7903151441
 H       -11.2705399803        0.3150062269        4.0250567205
 H       -11.0124979821        0.0677174384        5.9317257203
 H        -7.1759033590        3.8515327132       -0.3525963695
 H        -6.4847827917        5.1286349373        0.7472166514
 H        -7.9709609718        5.4788425488       -0.2539010915
 H        -8.8114198860        5.5434457506        3.3700274005
 H        -8.6114132916        6.5237622631        1.8954456905
 H        -7.2445963600        5.5391981944        2.6576682088
 H       -14.3024426308        6.8298742496       -1.1580792389
 H       -13.8205971622        6.3076252332       -2.8948569282
 H       -14.3961224314        7.9606105822       -2.3816576910
 H       -12.0150030492        8.7083140361       -3.7143944772
 H       -11.5290038691        7.1652184436       -3.7280394793
 H       -10.5768869879        8.2624033636       -2.8587448783
 H       -14.1671088783       15.5141538864       -0.1953558969
 H       -12.7882284862       15.1480798957        0.8686278102
 H       -14.4284824659       15.1812463534        1.4219505907
 H       -12.3836536111       12.7029964865        1.7543367970
 H       -13.7739891366       11.4651693159        1.7574643065
 H       -13.9050505620       13.0774569502        2.5105227527
 Na       -8.9252109445        1.5591750848       -0.1350353649
