117

 C       -15.9963506206       13.3052303311       -1.5509483658
 C       -15.2462350161       12.6857320666       -0.2766026587
 O       -15.7743734227       11.8122703866        0.3400596823
 C       -13.7710962089       13.2376605686        0.2186267608
 C       -12.6717538730       12.9785122151       -0.8236116357
 O       -12.0932357039       13.7503159805       -1.5220812089
 C       -12.1067085459       11.5934396436       -0.6675171654
 C       -12.9312328661       10.3620763615       -1.2423747301
 C       -12.3519615472        8.9749226909       -0.7165694847
 O       -12.1523727491        8.8147324743        0.4638518970
 C       -12.1505169940        7.6720328729       -1.7819729073
 C       -11.3858805571        6.4298926282       -1.0927943866
 O       -10.2901168805        6.0923621850       -1.4294730977
 C       -12.1637770263        5.5806565933        0.0398506450
 C       -11.0560695463        5.2817702643        1.1390375228
 C        -9.9136087903        4.2995650791        0.9056704247
 O       -10.1052974364        3.3711267688        0.1853240103
 C        -8.5928577926        4.4739673605        1.5293719718
 C        -7.9758491360        3.0975480717        2.2682974153
 O        -7.2822809418        2.3200953803        1.6305815991
 C        -8.0158488626        3.0621495320        3.8314124699
 C        -7.9095943750        1.5304668912        4.2990147809
 C        -8.9775661985        0.6170200308        3.7971921498
 O        -9.4535642565        0.9795423216        2.7171537785
 C        -9.4206422605       -0.6190359960        4.5517203099
 C        -9.3503319177       -1.9110984957        3.5804821697
 O        -8.9045533419       -2.9605179786        3.9980212442
 C        -9.9909613267       -1.8492886172        2.2127643246
 C        -9.0743913040       -2.8413176881        1.2737192325
 C        -8.4550745466       -2.1757167297        0.0581373928
 O        -8.3576903752       -0.9306168326       -0.0580567370
 C        -7.4657204339       -3.1371016586       -0.8403770021
 C        -7.4195186522       -2.5027357547       -2.3338826117
 O        -6.5276730121       -1.7937810317       -2.7607352580
 C        -8.7474172854       -2.7329300616       -3.0925881368
 C        -9.0652640250       -1.5189303698       -4.0808572163
 C        -8.8900771648       -0.1070634744       -3.4380069367
 O        -9.5586509598        0.1451956545       -2.3951545278
 C        -8.0881532246        0.9995231695       -4.1701173839
 C        -7.1419004759        1.5741082588       -2.9268309889
 O        -7.6918194581        1.7702645309       -1.8170203259
 C        -5.6331778770        1.5513970163       -2.9738110466
 C        -7.2225852701        0.5221286735       -5.3336399644
 C        -8.9915042318        2.1202864346       -4.5381890533
 C        -6.1002437040       -3.0167926549       -0.1261004466
 C        -7.8200069690       -4.8410473288       -0.7912331291
 C        -8.7737820582       -0.8170212851        5.8942107320
 C       -10.9940691826       -0.2979751737        4.6999542159
 C        -7.5780833721        4.4913462794        0.3492754862
 C        -8.3585828619        5.6618330981        2.5063854069
 C       -13.6100522820        7.1520268594       -1.8936595103
 C       -11.5667539212        8.0783298557       -3.1426714147
 C       -13.8734011371       14.8082590089        0.3476894009
 C       -13.2903135630       12.6277954776        1.5897571425
 H       -16.7682766166       12.5251137000       -1.9145170631
 H       -15.4659134250       13.7977008671       -2.3189109204
 H       -16.5866967760       13.9475229223       -1.0471222504
 H       -12.0561246413       11.3478089181        0.4543364708
 H       -11.0481050507       11.6875417171       -0.9002647198
 H       -12.9534392609       10.5265854815       -2.2976289983
 H       -13.9130258182       10.5277951436       -0.8781683534
 H       -12.6273655287        4.6864885278       -0.4223497002
 H       -12.9157478695        6.2091729647        0.5484937897
 H       -11.5671431337        5.0886310016        2.0435719971
 H       -10.5238726395        6.2112789689        1.3245564625
 H        -8.9647262607        3.5479313944        4.2015853091
 H        -7.2226888729        3.6152074791        4.2401620984
 H        -7.9777774218        1.6497467727        5.3990626979
 H        -6.8870620328        1.1725328998        4.0101225767
 H        -9.9446343661       -0.8280748358        1.7851589914
 H       -11.0468754826       -2.2009522053        2.1311304469
 H        -9.5277827616       -3.8007038762        0.9760157188
 H        -8.1645008381       -3.1673851480        1.7925828224
 H        -9.5162215440       -2.7859141924       -2.2879381380
 H        -8.7035331441       -3.6120339397       -3.7494899127
 H       -10.1059277610       -1.3710573616       -4.5202977130
 H        -8.3435142850       -1.5530583836       -4.8706717927
 H        -5.3719705848        2.5153650398       -2.5240975135
 H        -5.1924899801        1.5008154512       -3.9111251574
 H        -5.1620013141        0.7833910810       -2.2473888848
 H        -6.4123685978       -0.1626744139       -5.0684210721
 H        -6.7289127736        1.3067554888       -5.9604335449
 H        -7.8787595705        0.0276424590       -6.0163787165
 H        -9.8617056852        1.9053368684       -5.0251278296
 H        -8.3661273919        2.8674047037       -4.9929566479
 H        -9.3339019939        2.5374071804       -3.6226344888
 H        -5.5630850972       -2.1149695915       -0.4623566982
 H        -5.4682493818       -3.8449755251       -0.3464673416
 H        -6.2753183717       -3.0422139530        0.9499787794
 H        -7.8055491710       -5.2861735574        0.1950820473
 H        -6.9693298590       -5.2996273666       -1.3088373417
 H        -8.7248577234       -4.9097109508       -1.3477579033
 H        -9.5195361053       -1.0916359056        6.6496856373
 H        -8.3478207313        0.1496304721        6.1221650416
 H        -8.0030175685       -1.5811846990        5.8329374809
 H       -11.5480438502       -1.2452576582        4.7829605766
 H       -11.2460527038        0.0560632936        3.7183569030
 H       -11.1305985040        0.2893047187        5.6210532661
 H        -8.0134479088        4.1007688900       -0.5795071352
 H        -6.6456589449        4.0527531867        0.5375898168
 H        -7.5848894242        5.6614243172        0.1534068039
 H        -8.7664291069        5.4301499261        3.4878186365
 H        -9.0041351354        6.4880172997        2.1252652086
 H        -7.2986943684        5.7680464094        2.5991485456
 H       -14.0384121465        6.8749975788       -0.9696045656
 H       -13.6917988160        6.3422699969       -2.6604295196
 H       -14.3215894304        7.8850647559       -2.2172362671
 H       -11.9092663615        8.9899274365       -3.5136064882
 H       -11.6073076462        7.4533999506       -4.0280813724
 H       -10.5016375764        8.1663889755       -2.9644675016
 H       -13.7168671126       15.4229006995       -0.5845856136
 H       -12.9227092628       15.0593946682        0.9174060677
 H       -14.6280894784       15.4927680183        0.8355314736
 H       -12.1985664477       12.5646721217        1.6745851884
 H       -13.7742640178       11.7423880586        1.9931569537
 H       -13.5561506045       13.4307338053        2.2150091703
 Na       -8.7759979580        1.2604605938       -0.2008315169
