117

 C       -15.7660588502       13.4821852777       -1.5483342227
 C       -14.9961570464       12.7775783390       -0.4584071590
 O       -15.3197557506       11.7325112315        0.1462864110
 C       -13.7396847013       13.5112290856        0.0659033223
 C       -12.6245756222       12.8705557789       -1.0325429383
 O       -12.3472564254       13.3869546101       -2.1034742865
 C       -11.9751811271       11.4821175417       -0.8642746099
 C       -12.7935719186       10.3064578815       -1.4002741973
 C       -12.3240816301        9.0393961023       -0.6670448417
 O       -11.9011941648        8.9816447545        0.4431505465
 C       -12.1938638117        7.6881186098       -1.6953553588
 C       -11.2510919055        6.5924404328       -1.0163846883
 O       -10.0919767707        6.6035089511       -1.4166022646
 C       -11.7952870429        5.4658715094       -0.0291194285
 C       -10.9497995447        5.3394996968        1.2910968878
 C       -10.0042652994        4.2147148899        1.2418772004
 O       -10.3384443969        3.1043684579        0.7641092823
 C        -8.4936184307        4.4800893580        1.4860589904
 C        -7.6953503360        3.2149892441        2.2127702376
 O        -7.0152663204        2.4208000617        1.6222306887
 C        -7.8826055253        2.8226403590        3.7945081502
 C        -7.7145282704        1.3057672094        4.0157747685
 C        -8.9400590535        0.5666004987        3.6182486963
 O        -9.5934428548        0.9778976407        2.6792521269
 C        -9.6244740713       -0.6366236299        4.4216846688
 C        -9.2865499988       -1.9095920052        3.5515842738
 O        -8.4476482207       -2.6262207437        4.0186180981
 C       -10.0073896111       -2.1165100891        2.2409322102
 C        -9.5139861735       -3.0760596313        1.1929403398
 C        -8.3926735318       -2.2370021580        0.3643547279
 O        -8.5348614602       -1.0776671139        0.1146383932
 C        -7.3599997791       -3.1224498429       -0.5810333740
 C        -7.5188524290       -2.3928114380       -2.0799641660
 O        -6.5282600381       -1.9563476462       -2.6276949540
 C        -8.9854719357       -2.6046854987       -2.7777992586
 C        -9.2140048930       -1.6958646070       -3.9191876775
 C        -9.0582538716       -0.3152019217       -3.3303698416
 O        -9.5790193649       -0.1000197928       -2.2846379811
 C        -8.2109386761        0.7640234327       -4.0570508228
 C        -7.3398994809        1.4609422833       -2.8913370243
 O        -7.8645316258        2.0231616261       -2.0014976165
 C        -5.7931495478        1.4125041775       -2.9983602125
 C        -7.4390969716        0.4255537743       -5.3138435563
 C        -9.2634596581        1.8804019340       -4.4485283825
 C        -5.9370747805       -2.8540867756       -0.0028151816
 C        -7.9349828511       -4.5088008797       -0.8396707312
 C        -9.0902065725       -0.8628704941        5.8306024346
 C       -11.1896816873       -0.4869510380        4.5357718242
 C        -7.5635468160        4.9326611983        0.1974020574
 C        -8.2346229062        5.6380714236        2.5120944143
 C       -13.6999795371        7.4190406359       -1.9433598223
 C       -11.3831860092        8.0612480948       -2.9585617370
 C       -13.8344479216       15.0469302275       -0.2722039682
 C       -13.6044211106       13.2109327621        1.6142914595
 H       -15.9191043033       12.6777871450       -2.3224573679
 H       -15.0232625375       14.2202179309       -1.9216310730
 H       -16.7905015348       13.9710767916       -1.3351667031
 H       -11.5352913561       11.3172159248        0.0454941884
 H       -11.1424722690       11.6064603017       -1.5387537535
 H       -12.6452182323       10.3062741229       -2.5144915987
 H       -13.8805841241       10.5052147847       -1.0891493834
 H       -11.8025003804        4.4686216436       -0.4850612151
 H       -12.8023091079        5.7628458977        0.2201679202
 H       -11.7680839407        5.2481749803        2.1156910810
 H       -10.3509770070        6.2443791639        1.4803906358
 H        -8.7286111380        3.2135993816        4.3037148601
 H        -6.9410855714        3.3155104655        4.2269764095
 H        -7.3942833769        1.2080733872        5.0241640358
 H        -6.9783727372        0.9877576091        3.2977365195
 H       -10.0889652920       -1.1728266802        1.6503242107
 H       -11.0525365389       -2.4314631471        2.3853225529
 H       -10.3265536492       -3.3626693753        0.4852517466
 H        -9.0553329295       -4.0540307133        1.5269081034
 H        -9.8489971322       -2.5008711673       -2.0876045009
 H        -8.9062273139       -3.5724807807       -3.3257232448
 H       -10.1964269890       -1.7720294207       -4.2740167037
 H        -8.4362290699       -1.8042815956       -4.7275402181
 H        -5.1410575273        1.5533549458       -2.1589397674
 H        -5.5498006661        2.0403617745       -3.8750744780
 H        -5.6330154726        0.4117640582       -3.3812178699
 H        -6.8925610960       -0.5028803096       -5.3158274437
 H        -6.7651954340        1.2603687349       -5.5425665901
 H        -8.0249763018        0.3604473192       -6.2248190585
 H       -10.0447145762        1.2328592205       -4.9140727739
 H        -8.7861030964        2.6362765106       -5.1722168112
 H        -9.7762165345        2.4555016174       -3.6770664891
 H        -5.7780290358       -1.7171269385        0.0550262628
 H        -5.1439553098       -3.2547473521       -0.7816670125
 H        -5.6509139927       -3.4750272508        0.8917393248
 H        -7.5703394474       -5.0709731059       -0.0220468126
 H        -7.4172783080       -4.8785415645       -1.6827050672
 H        -9.0325977392       -4.4773216380       -0.9719364392
 H        -9.4453298735       -1.8779931769        6.1312247450
 H        -9.4512233538       -0.0332978690        6.4641055316
 H        -7.9783770423       -0.9231109794        5.7653264369
 H       -11.4388014824       -1.0317813081        5.4190998535
 H       -11.7911421201       -0.8856862133        3.6841126045
 H       -11.2694600630        0.5943553850        4.7545333006
 H        -8.0268934194        5.6954661543       -0.3726190362
 H        -7.4496723404        4.0342267510       -0.4619359993
 H        -6.7335710382        5.4188575555        0.5548789423
 H        -9.0627306681        5.7374822730        3.1978063320
 H        -8.2636698787        6.5203929700        1.9045908033
 H        -7.2837674317        5.4121793485        3.0401446587
 H       -14.2809623831        7.5864896308       -1.0468157602
 H       -13.8448719835        6.4153512954       -2.2674631819
 H       -14.0674914811        7.9807199830       -2.7900272785
 H       -11.7196823762        8.9983879900       -3.5213037820
 H       -11.5513644699        7.2839634781       -3.7450078418
 H       -10.2925129929        7.9215804994       -2.9417727779
 H       -13.6284072609       15.3923379733       -1.2375059482
 H       -13.3917434401       15.7590309717        0.3478181614
 H       -14.8050002797       15.3360440297       -0.1437600279
 H       -12.8689846873       13.8728071866        2.0335830992
 H       -13.1525009385       12.2107118778        1.6495808170
 H       -14.5823187033       13.1427160688        2.1019581887
 Na       -8.8194785768        1.0906805087        0.2015794092
