117

 C       -15.9321290254       13.5174737502       -2.4545811775
 C       -14.8304877028       13.3008177158       -1.3477387834
 O       -15.1304784882       12.7287293693       -0.3200038928
 C       -13.4771455841       14.0333716992       -1.3567022333
 C       -12.4501427010       12.8814498002       -2.1775607922
 O       -12.4451613376       12.8414340915       -3.3592531644
 C       -11.7505659533       11.6600805928       -1.1765182379
 C       -12.5701410274       10.3879111374       -1.1151797201
 C       -11.6878252418        9.1805649195       -0.5059474812
 O       -11.0811685205        9.2580940878        0.5103798753
 C       -11.6326379278        7.8768604343       -1.4462756716
 C       -10.7276677315        6.9731068732       -0.6048542237
 O        -9.5276102265        6.8032161074       -0.8021452201
 C       -11.3018354889        6.3396477803        0.5922629498
 C       -10.2883810526        5.8226860962        1.6477011484
 C        -9.6015362341        4.5033108806        1.1364705902
 O       -10.3064709070        3.5388239834        0.9326950910
 C        -7.8421817843        4.4513123450        1.5453336064
 C        -7.4873246940        2.9271674153        1.7451853054
 O        -7.0915597503        2.3529083415        0.7665131441
 C        -7.6946595724        2.3265621596        3.1694187240
 C        -7.9091126442        0.8032877089        3.0304388718
 C        -9.4326156696        0.3604114141        3.0672428636
 O       -10.3222138612        0.8189890553        2.3737739708
 C        -9.8931781704       -0.7413480646        4.1944071620
 C        -9.3241827784       -2.1405878553        3.6948060780
 O        -8.1398304134       -2.2726345750        4.0140672771
 C       -10.2135560868       -3.0177783860        2.7226503264
 C        -9.2121148978       -3.7585764171        1.7209693085
 C        -8.6066707699       -2.7623086322        0.6709475885
 O        -8.6606683776       -1.5439767397        0.8570020742
 C        -7.3739631564       -3.3042923089       -0.3106621767
 C        -7.6823854721       -2.7749085338       -1.6477847496
 O        -7.0760064687       -1.8993858910       -2.2043639685
 C        -9.0884213186       -3.1024859645       -2.1175573426
 C        -9.6167165793       -1.9932673141       -2.9943214970
 C        -9.6503620219       -0.5353034598       -2.4149822455
 O       -10.0064063485       -0.2664444227       -1.2045010868
 C        -9.0952728154        0.6025838214       -3.3869150223
 C        -7.9966187994        1.3696503426       -2.6695631266
 O        -8.3154177197        2.1194930759       -1.7072673001
 C        -6.5862932839        1.0910313149       -3.0457760972
 C        -8.7146930158        0.1855911947       -4.8511022535
 C       -10.4345748068        1.5741926726       -3.3947278631
 C        -6.0447772065       -2.6671787697        0.2086884143
 C        -7.1730756382       -4.8838305186       -0.4735839056
 C        -9.3127229773       -0.2294939906        5.4973389252
 C       -11.4439533192       -0.8529583292        4.3210619793
 C        -6.9186439365        4.9440957574        0.4499621569
 C        -7.4523894209        5.4376497676        2.7186157949
 C       -13.0358829594        7.3821912523       -1.8651991996
 C       -10.8577979709        8.3509399119       -2.6981909404
 C       -13.7258965948       15.3535282511       -2.0170206800
 C       -13.0976261709       14.3284716853        0.0392793504
 H       -16.4991470167       12.6484132354       -2.4722095940
 H       -15.4971732615       13.6562098267       -3.5715299728
 H       -16.4594456652       14.4879507976       -2.2753072365
 H       -11.6483256205       11.9100741166       -0.1189967873
 H       -10.8006507975       11.3834793424       -1.5883105461
 H       -13.1013992210       10.0215001298       -1.9263199935
 H       -13.1784991645       10.5777405983       -0.2300653334
 H       -11.9541525491        5.4750001470        0.3477050710
 H       -12.0058516053        7.0886993754        0.9718335236
 H       -10.9816931336        5.5876182249        2.4409809818
 H        -9.5904335469        6.6091240075        1.7784768518
 H        -8.6526201848        2.7283800303        3.5170814821
 H        -6.9398810410        2.7976599636        3.7944072169
 H        -7.3944218696        0.3395585781        3.8841824932
 H        -7.4422654667        0.3557688672        2.1151599059
 H       -10.8556380771       -2.3731145327        2.0704500100
 H       -10.8717975202       -3.7509195682        3.2251554372
 H        -9.5425343928       -4.6400125964        1.1576026520
 H        -8.2980748492       -4.1465274531        2.2319293946
 H        -9.8820135227       -3.3293642482       -1.2644455325
 H        -9.0777503160       -4.1136858796       -2.5692020510
 H       -10.6188254014       -2.2297971712       -3.3674976394
 H        -9.0131890379       -1.8509802738       -3.9620492262
 H        -5.9175290763        1.6433016602       -2.3978746207
 H        -6.2564519641        1.2816622723       -4.0122018891
 H        -6.3037325527        0.0096482795       -2.7603114135
 H        -7.7733576638       -0.3401267538       -4.8400762428
 H        -8.4784390492        1.0172673998       -5.6014091317
 H        -9.4824526351       -0.3126142809       -5.3505127655
 H       -11.2294316531        1.1594289420       -3.8738519574
 H       -10.1269678408        2.3536301256       -4.0951237210
 H       -10.6503794427        2.0410023792       -2.4626952399
 H        -5.8509397460       -1.7201255858       -0.2944502766
 H        -5.4122815464       -3.3870048755       -0.2015985929
 H        -6.0466078390       -2.5716952608        1.2907292349
 H        -6.6734442360       -5.3322147788        0.3669453324
 H        -6.5361167570       -4.8624144616       -1.3786359862
 H        -8.1031772140       -5.4680651349       -0.7568493100
 H        -9.7494016901       -0.6991688189        6.4039415254
 H        -9.4893268886        0.8074917236        5.5958763173
 H        -8.2743001372       -0.3895413585        5.5693285618
 H       -11.5264841502       -1.1703176269        5.3313809485
 H       -11.8928632210       -1.5271218522        3.5676333791
 H       -11.9409232727        0.1878033149        4.1905030169
 H        -7.2019173932        5.9393609381        0.1150100833
 H        -6.7673165631        4.4216754331       -0.4354445703
 H        -5.8436556980        4.9711477515        0.9411397802
 H        -8.1294777901        5.3805942942        3.5183677456
 H        -7.6114644267        6.5114877830        2.3313052588
 H        -6.3875003711        5.5052279703        3.0318386467
 H       -13.8438859021        7.3883448799       -1.1699687298
 H       -12.7499818566        6.3242195759       -2.1477605062
 H       -13.3189973967        7.9723429644       -2.7144355177
 H       -10.9702049653        9.3699800329       -2.9470494625
 H       -11.1320847362        7.8591487897       -3.5968174451
 H        -9.7826810393        8.3486497083       -2.5510882402
 H       -13.5579221166       15.3778522867       -3.1328082044
 H       -13.0974342737       16.2500914187       -1.7222456115
 H       -14.8007869252       15.7267310198       -1.8350762850
 H       -13.8504201301       15.0847672940        0.2573718135
 H       -12.0429125774       14.6798004848        0.1371160564
 H       -13.4382295639       13.5272158783        0.6365075831
 Na       -9.3173698835        1.1557387013        0.3406945359
