117

 C       -15.7063454422       13.1415911401       -2.9158134454
 C       -14.8310548889       13.4641157237       -1.5774293653
 O       -15.0637250852       12.8639128841       -0.5467327740
 C       -13.2915803385       14.2304514737       -1.7643819233
 C       -12.6572379123       13.0252934203       -2.4075777680
 O       -12.7148531357       12.9452636442       -3.6007993757
 C       -11.8450160728       11.9093860687       -1.5462165648
 C       -12.6248570196       10.7322194739       -1.2903220989
 C       -11.7260342777        9.5204425358       -0.5151514995
 O       -11.3001339999        9.8885569808        0.5204256318
 C       -11.3468291905        8.1809214531       -1.2605006796
 C       -10.5052706109        7.0048927465       -0.5156348048
 O        -9.5944432674        6.4700603748       -1.1343599627
 C       -10.9309038287        6.3855872223        0.8870522526
 C        -9.6947735289        5.8530761636        1.6928022249
 C        -9.1340293349        4.6226321904        1.1080108123
 O        -9.6671173515        4.1007429707        0.1186558742
 C        -7.6021850178        4.2182549704        1.5770725252
 C        -7.2676999230        2.7067781107        1.6782041908
 O        -6.7615398349        2.1152767334        0.7902848413
 C        -7.7215593818        1.9850945425        2.9769189420
 C        -8.1321284009        0.5156987342        2.8379163416
 C        -9.5345659672        0.1358768374        3.2066339044
 O       -10.4318438054        0.6947910786        2.5875440115
 C       -10.0053355008       -0.8695031857        4.3519390844
 C        -9.3688745575       -2.2355735937        4.1567655094
 O        -8.3917475427       -2.6491972069        4.7830648890
 C        -9.9492173797       -3.0769121094        3.0220674019
 C        -8.6997992176       -3.6705995329        2.1911405904
 C        -8.4076333237       -2.7961845594        0.9661955856
 O        -8.7948803829       -1.6270864927        0.9670635070
 C        -7.3552345961       -3.3081212951       -0.1155776524
 C        -7.6916209246       -2.6992582483       -1.5079588356
 O        -6.9017726747       -2.0430303626       -2.1083368613
 C        -9.0190012901       -3.1423612785       -2.4073007022
 C       -10.0749446490       -2.0728433648       -2.9126006452
 C        -9.9432795908       -0.7111730576       -2.2757854250
 O       -10.2472474457       -0.4983420485       -1.0374574279
 C        -9.6842085676        0.5034295992       -3.1759685886
 C        -8.3497384929        1.1727441570       -2.6442253833
 O        -8.4129025252        1.8266317440       -1.5870554388
 C        -6.9884554775        1.0869966810       -3.2400332927
 C        -9.4470932195        0.2041055738       -4.7982001983
 C       -10.8475749370        1.6076111725       -3.1417161720
 C        -5.8591931005       -2.7671318560        0.2961104936
 C        -7.1363333700       -4.8605809621       -0.2449715065
 C        -9.5773030240       -0.3454461274        5.7891904298
 C       -11.5132762352       -0.8267030673        4.2376530032
 C        -6.8891463955        5.0134110073        0.4078418092
 C        -7.3135689254        4.7827675862        3.0888057459
 C       -12.7320662910        7.4981124378       -1.7209860623
 C       -10.6028813120        8.4916507813       -2.6285383656
 C       -13.3605033423       15.3271442707       -2.8432847902
 C       -12.7588135350       14.8683004367       -0.3975717382
 H       -16.4325368584       12.4983883433       -2.6012690770
 H       -15.2356680116       12.4985724479       -3.7163496755
 H       -16.1622965912       13.9986270562       -3.3093755218
 H       -11.6155013855       12.3921752387       -0.5158841338
 H       -10.8427624387       11.8063025159       -2.1488292824
 H       -13.1795077373       10.4052137358       -2.1655118229
 H       -13.3402773577       10.9682236749       -0.4592811377
 H       -11.7215394603        5.6522116260        0.6667593331
 H       -11.3920310864        7.1521744517        1.5279322285
 H       -10.0245165214        5.7746886707        2.7492792077
 H        -9.0578117122        6.6859971032        1.4987775689
 H        -8.4096705268        2.6125206472        3.4379780369
 H        -6.8457181527        2.0777977403        3.7068901632
 H        -7.3888235768       -0.0158123576        3.4597597743
 H        -7.8630202231        0.1825500646        1.8303056353
 H       -10.5192947530       -2.4654958360        2.3601509159
 H       -10.5711970525       -3.8886351910        3.2752460285
 H        -8.8983137093       -4.6312572705        1.8307206105
 H        -7.8858042030       -3.7892334122        2.8928106666
 H        -9.5485508584       -4.0170734305       -2.0998395479
 H        -8.5597544010       -3.4796338699       -3.2719148719
 H       -11.0721739242       -2.3537082604       -2.6916445261
 H       -10.0149408144       -1.9993110147       -4.0518735180
 H        -6.1520301315        1.1949323969       -2.5914001493
 H        -6.7816975899        1.6450293441       -4.1344011900
 H        -6.8879854248       -0.0513439950       -3.5172799751
 H        -8.8079402421       -0.6388761413       -5.0626816023
 H        -9.1752712495        1.1638423092       -5.4430129589
 H       -10.4344648609        0.0522881883       -5.2279864542
 H       -11.7275559929        1.2483333867       -3.6965230290
 H       -10.4194317961        2.5296167557       -3.7349563702
 H       -11.1858977011        1.8908207172       -2.1144644488
 H        -5.8877136347       -2.0258911738        1.1016090153
 H        -5.3436054410       -2.3836771444       -0.6014994543
 H        -5.5017973576       -3.6740854326        0.7286989792
 H        -7.2566651847       -5.4486253138        0.6628514673
 H        -6.1058152442       -4.9909378642       -0.5672356426
 H        -7.7415864224       -5.3550150492       -1.0769219818
 H        -8.9793220055       -0.9872335865        6.4818346273
 H       -10.4767129035       -0.0314627586        6.3336670517
 H        -8.9799431560        0.5613838447        5.6809738357
 H       -11.8817204340       -1.6237460930        4.8022149799
 H       -11.7771000565       -1.0095474841        3.1766492886
 H       -11.8245943848        0.0964161164        4.7628945843
 H        -6.8133206073        6.0885863660        0.6147935747
 H        -7.1952725044        4.8634384755       -0.5921207020
 H        -5.8404492661        4.5347588823        0.2408382086
 H        -8.1335517769        4.5537893422        3.6832327258
 H        -7.2061626468        5.8683245692        3.3098323234
 H        -6.4265457253        4.2995593957        3.5153209442
 H       -13.0432935940        6.7821876165       -0.9678428454
 H       -12.5210796180        7.1075994806       -2.7880191023
 H       -13.4652816613        8.3244651687       -1.7528274539
 H       -11.1989124355        8.7235323441       -3.5328611652
 H       -10.0426253540        7.6534248905       -3.0265601993
 H       -10.0949644479        9.4659170521       -2.5838984226
 H       -14.1745729605       15.1436555850       -3.4801770875
 H       -12.4731921845       15.2562316598       -3.4773880156
 H       -13.3672917653       16.3311100475       -2.4762799682
 H       -13.2584011022       15.8257540853       -0.2914570094
 H       -11.7005569365       14.9173922126       -0.6613755093
 H       -12.9375925240       14.1943098466        0.4297324952
 Na       -9.8566769889        1.7416414718        0.2651311212
