117

 C       -15.5366406090       13.1986436273       -2.7989139753
 C       -14.6968620683       13.5035651514       -1.7036891008
 O       -14.9489116326       13.0975898131       -0.5808600159
 C       -13.3635013376       14.1902247231       -1.9639652997
 C       -12.4924724774       12.9791141292       -2.5554214063
 O       -12.6412984889       12.5966302554       -3.7157964967
 C       -11.7865038608       11.9027292283       -1.6440013099
 C       -12.5885080506       10.5709089134       -1.3884214521
 C       -11.7262038065        9.7527558287       -0.5489110075
 O       -11.3219077196       10.0184671780        0.5796169082
 C       -11.3707144233        8.2312002324       -1.2760365811
 C       -10.4499711830        7.0763528563       -0.6606422833
 O        -9.5436284219        6.5574455111       -1.2887049842
 C       -10.7330833226        6.7069339517        0.8758150421
 C        -9.6355908770        5.9202801278        1.7173433901
 C        -9.1520903399        4.5795011245        1.1499206927
 O        -9.5607028456        4.0790084770        0.1352105952
 C        -7.6263837659        4.1808927911        1.6318570636
 C        -7.3851238283        2.6042677487        1.6457140219
 O        -6.8224709727        1.9924871300        0.7790537496
 C        -7.7972964295        1.9177295530        3.0185355931
 C        -8.0380869663        0.3884492838        2.7987966307
 C        -9.5036437391        0.1152869334        3.2304383470
 O       -10.3413925948        0.6418832286        2.5169284838
 C       -10.0620286299       -0.7272279652        4.4071038560
 C        -9.3976891048       -2.2538130888        4.2131951495
 O        -8.4967057503       -2.6842190252        4.9356673542
 C        -9.9283774110       -3.1423408128        3.0907359858
 C        -8.6214074284       -3.6606511452        2.2452457222
 C        -8.3549287091       -2.7857657851        1.0028879304
 O        -8.8211468231       -1.6437306031        0.9453438409
 C        -7.3813277120       -3.3327123631       -0.1438468462
 C        -7.6127078063       -2.7454990576       -1.5987602294
 O        -6.9154106613       -1.8960875040       -2.1301915379
 C        -8.8984810391       -3.2882736610       -2.2294208918
 C        -9.8660067067       -2.1194233037       -2.6502230238
 C        -9.9770501863       -0.6214276588       -2.1820720862
 O       -10.3086528378       -0.3578804400       -1.0073296829
 C        -9.7851691694        0.6228272484       -3.1531824075
 C        -8.4364989203        1.1721436352       -2.6684147919
 O        -8.4437447554        1.7469523541       -1.6234830329
 C        -7.1052881874        0.9518933734       -3.4710103453
 C        -9.6083727421        0.1390233687       -4.6169795094
 C       -10.9231121176        1.5352297910       -2.9720227922
 C        -6.0054433221       -2.7229051214        0.2229511118
 C        -7.2300220639       -4.8822133459       -0.3602461192
 C        -9.5575655142       -0.1157614064        5.7110035184
 C       -11.6638944797       -0.9436349077        4.2349304233
 C        -6.7433216172        4.9076897792        0.6656950531
 C        -7.1417092103        4.8372624666        2.9911539995
 C       -12.7373441813        7.5514740598       -1.5806754329
 C       -10.5663665605        8.6294676623       -2.5603864168
 C       -13.3885618531       15.3818946677       -3.0172672299
 C       -12.9413606219       14.7857889579       -0.5325382906
 H       -16.4322667331       12.6908266583       -2.5092733249
 H       -15.0342931677       12.4384451836       -3.4175829402
 H       -15.8675347779       14.1328691640       -3.4296791462
 H       -11.4548099014       12.5017681302       -0.7337654682
 H       -10.8984969175       11.6831808092       -2.2207651538
 H       -12.6177051868       10.1096488054       -2.3401821053
 H       -13.5970708040       10.5253681426       -0.9671420227
 H       -11.7380962946        6.2332741073        0.8725441769
 H       -10.8717935988        7.6409182304        1.4485971507
 H       -10.0837547662        5.7327870697        2.6610171742
 H        -8.8934285203        6.6857702407        1.7737333743
 H        -8.6740041936        2.5064335734        3.3155409518
 H        -7.1644944467        2.1477098569        3.8456329629
 H        -7.2226988508       -0.1245139169        3.3363957188
 H        -7.8252364638        0.1153930299        1.7175946779
 H       -10.7227654249       -2.7669148888        2.4820869852
 H       -10.3370293572       -4.0299173954        3.5483642194
 H        -8.7328208612       -4.6849112881        1.9346127479
 H        -7.8369418520       -3.5935745593        2.9575190651
 H        -9.4459603774       -3.9279302593       -1.4379503240
 H        -8.8727914747       -3.9443531481       -3.0854615295
 H       -10.9099612238       -2.4578584122       -2.4142571835
 H        -9.7927540293       -2.1191190799       -3.7771939884
 H        -6.1602572944        1.1255111479       -2.8695983909
 H        -7.0311697880        1.5999209976       -4.3293668265
 H        -6.9073881848       -0.0454385345       -3.8561142315
 H        -8.7790694369       -0.6376802265       -4.7216338109
 H        -9.6715272477        0.8230381949       -5.4777132516
 H       -10.5494940949       -0.4816935519       -4.7418349698
 H       -11.8584063936        1.1143110836       -3.3751820903
 H       -10.7192646551        2.4741148006       -3.4118061841
 H       -11.0982161217        1.6337789724       -1.8477998306
 H        -6.1551899060       -2.0124058477        1.0060580589
 H        -5.6309981171       -2.2550731988       -0.5957923676
 H        -5.4824016410       -3.5482916392        0.6070301229
 H        -6.8762805067       -5.3846787460        0.5798902526
 H        -6.4720799975       -5.1729958599       -1.1537144051
 H        -8.2145635399       -5.3574661149       -0.6321008813
 H        -8.7772672951       -0.6423952263        6.2587267106
 H       -10.3626384675        0.0419657473        6.3821709470
 H        -9.1292075500        0.8435098737        5.5248931254
 H       -11.9273924104       -1.9154887679        4.6738417963
 H       -11.7229162535       -1.1916480613        3.1951653082
 H       -12.2786349344       -0.1593995474        4.7115597819
 H        -6.7399378928        6.0146129183        0.8240717669
 H        -6.6876277482        4.6498036025       -0.3801859022
 H        -5.6991073310        4.4989237483        0.9018240674
 H        -7.8495943620        5.0004562346        3.7647818062
 H        -6.8770642278        5.9167874606        2.8223650963
 H        -6.2514204806        4.3673922801        3.3758293804
 H       -13.0563615105        7.0211431951       -0.6149724580
 H       -12.5247799952        6.9216530672       -2.4881025933
 H       -13.4879660761        8.3540025995       -1.8425487225
 H       -11.0940664868        8.7958844202       -3.4626382429
 H        -9.8300853214        7.9432266352       -2.9432809359
 H       -10.2381218213        9.6530440329       -2.3850020649
 H       -14.1007605570       15.1291234138       -3.8572866852
 H       -12.3861347359       15.3980926103       -3.4577758385
 H       -13.5461458243       16.4555238967       -2.6218724487
 H       -13.8160820395       15.3923200266       -0.2434145171
 H       -11.9910898984       15.3305140279       -0.7968298180
 H       -12.7055040497       13.9576324690        0.1432441282
 Na      -10.1037804125        1.6466677370        0.3513419349
