117

 C       -15.6858260217       13.1835006078       -2.9787910568
 C       -14.6512481982       13.5204631446       -1.8584720636
 O       -15.1278774981       13.3136332911       -0.7563939179
 C       -13.2453819735       14.1030316486       -2.1473271008
 C       -12.3870778577       12.8743459937       -2.7258877764
 O       -12.5190942007       12.4012890510       -3.8088240380
 C       -11.6169788790       12.0507886344       -1.6516940284
 C       -12.4143815658       10.7908373766       -1.4077504033
 C       -11.5058962138        9.7053450601       -0.6521288455
 O       -11.3408192860        9.8239030606        0.5601677128
 C       -11.2206733005        8.4534325104       -1.4045889674
 C       -10.2544703347        7.4289489387       -0.5544439144
 O        -9.4731058451        6.7707368816       -1.2146214050
 C       -10.3629734429        7.1445249185        0.9495074627
 C        -9.3778893739        6.1141529937        1.6467451469
 C        -8.9647381098        4.6842326917        1.1993046653
 O        -9.7166082564        3.8123956371        0.7004427602
 C        -7.4612400095        4.2438239251        1.5962034991
 C        -7.4858486891        2.6441049643        1.7636009073
 O        -7.2769341936        1.9413053870        0.8166200319
 C        -7.9021167190        1.9847139064        3.1278930558
 C        -8.1453541343        0.4863671936        2.9989639600
 C        -9.5916605293        0.0564976691        2.9721976412
 O       -10.4849480933        0.4805882020        2.2252006057
 C       -10.0480165637       -0.7891068752        4.1457615460
 C        -9.2476869706       -2.1485396243        4.2656660904
 O        -8.7036456935       -2.5314657387        5.2813899170
 C        -9.5580527202       -3.1836795480        3.1485909910
 C        -8.5143234001       -3.7265226155        2.1918714872
 C        -8.2031620274       -2.7900302463        1.0363530479
 O        -8.9466369053       -1.8657818314        0.7836036701
 C        -7.2126648368       -3.1822399744       -0.0092465281
 C        -7.7868366579       -2.5654876526       -1.4123696997
 O        -7.1293097577       -1.8367819904       -2.0814953539
 C        -9.2757009423       -3.0713159479       -1.6853883027
 C       -10.1769905870       -2.1431963088       -2.6313646707
 C       -10.2372085724       -0.6770373405       -2.0362113516
 O       -10.2829213715       -0.6516464212       -0.8222761888
 C        -9.8902228126        0.4885868633       -2.9943828182
 C        -8.5144884325        1.0537528896       -2.6758196634
 O        -8.4299156948        1.6824175514       -1.5631837064
 C        -7.4208213050        1.0514279441       -3.6024951071
 C       -10.1270755608        0.0307228321       -4.4751413618
 C       -11.0741504612        1.5449448095       -2.8110826506
 C        -5.7933922895       -2.7764293770        0.4731554482
 C        -7.2261365443       -4.7901806515       -0.2797900383
 C        -9.6358178226        0.0364235680        5.3610218139
 C       -11.6328665158       -1.0136279733        4.3364450427
 C        -6.1676927518        4.4130778216        0.5096526417
 C        -7.3168307883        4.8003924733        3.0945598137
 C       -12.5260574900        7.5044473440       -1.4673073199
 C       -10.6285511169        8.7741571282       -2.8059043054
 C       -13.3807201409       15.0414863321       -3.3381845253
 C       -12.4210715858       14.8244220467       -1.0162515059
 H       -16.5064747036       12.7928663098       -2.4912622783
 H       -15.5013811744       12.3123181766       -3.7041078382
 H       -16.1262181884       14.0399985220       -3.4341703835
 H       -11.2983790395       12.6580389479       -0.8455388231
 H       -10.6630084056       11.9878135459       -2.1672363475
 H       -12.8754177179       10.5549841523       -2.4252534082
 H       -13.3374776637       10.9569974453       -0.7971563302
 H       -11.4090812375        7.0460357590        1.2402531485
 H       -10.0535400350        8.1243532833        1.3314084221
 H        -9.6948298618        6.0733847770        2.7433852304
 H        -8.5007470880        6.7987760242        1.6249915802
 H        -8.5830100272        2.6407904427        3.6369102391
 H        -7.0457692840        2.1462175782        3.8396223416
 H        -7.5066339823       -0.0013415089        3.7406160228
 H        -7.7120274363        0.1552433763        2.0647953399
 H       -10.3196817290       -2.8198243774        2.3925878076
 H       -10.1453205299       -4.0146419181        3.6554628628
 H        -9.0941723014       -4.5774290041        1.6810983988
 H        -7.5471997956       -4.1170597736        2.6946812987
 H        -9.7786552804       -3.3382799880       -0.7750891117
 H        -9.2696968734       -4.0366748314       -2.2957114618
 H       -11.1701742675       -2.5724704663       -2.6523698978
 H        -9.7496879314       -2.1699673800       -3.6282287248
 H        -6.7391023189        1.7814375187       -3.3119449651
 H        -7.6921560784        1.2701382335       -4.6390332513
 H        -6.8241374799        0.0745430210       -3.6582142124
 H        -9.3713448505       -0.5458219753       -4.8763951728
 H       -10.0619472394        1.0146329813       -4.9754351378
 H       -11.0388857150       -0.4461974756       -4.7093244677
 H       -11.9102172459        0.9284135324       -2.8353509782
 H       -11.1164236483        2.3299581592       -3.5956864073
 H       -11.1229840175        1.9600381812       -1.8694507370
 H        -5.9117467312       -1.8148189169        0.9733726321
 H        -5.2284466508       -2.6916021109       -0.5106649814
 H        -5.5129176942       -3.5764600687        1.1552183221
 H        -6.3019107218       -5.2034226559        0.0835219141
 H        -7.1699072448       -5.0431474432       -1.3302874791
 H        -8.0667805946       -5.3369848915        0.1256072924
 H        -8.5654589119       -0.0548896106        5.3413637775
 H        -9.9280525276       -0.4061294740        6.3045700557
 H        -9.7698123333        1.1018672182        5.4101164688
 H       -11.8412477961       -1.5275273331        5.2435614539
 H       -12.1184956094       -1.6560144606        3.5877700051
 H       -11.9318086429        0.0280503584        4.4522081951
 H        -6.3720364928        5.2791668034       -0.0689034579
 H        -5.8869916881        3.5312100326       -0.0524955887
 H        -5.2085832033        4.7174470199        0.9439128204
 H        -8.0952334574        4.5311485848        3.8237226471
 H        -7.4051804235        5.8628067068        3.1990264753
 H        -6.3294329627        4.4900999504        3.4889984367
 H       -12.9994378280        7.7244608661       -0.6060877491
 H       -12.1979562684        6.4899863765       -1.5034372894
 H       -13.0678727756        7.7191068299       -2.3348139337
 H       -11.3924655642        8.9671068134       -3.5888749454
 H       -10.1772617659        7.8485421067       -3.1544198219
 H        -9.9452193081        9.5978172278       -2.9095732365
 H       -13.2794938609       14.4679290109       -4.2603604748
 H       -12.6984431170       15.9505221288       -3.2883831079
 H       -14.3725521749       15.4703770963       -3.3762978696
 H       -13.1347896128       15.5296822206       -0.6466142713
 H       -11.5089107370       15.2305707930       -1.3490289081
 H       -12.2058869559       14.0369019726       -0.3251516420
 Na      -10.0776612178        1.5416750468        0.1689697860
