117

 C       -13.5552962371        1.4094669542      -10.4349611614
 C       -12.9151559121        0.0006535954      -10.0004097736
 O       -13.6121207552       -0.8563547491       -9.5322349841
 C       -11.4061098693       -0.2223156127      -10.1189582203
 C       -10.8704480546       -0.6039123717       -8.6718962903
 O       -10.7262914776       -1.7426314075       -8.3024674088
 C       -10.6740371246        0.6325927249       -7.8095831568
 C       -10.4163968861        0.1930671533       -6.3391542274
 C       -10.7105673029        1.3269707561       -5.3345144598
 O       -10.9636676310        2.4931359142       -5.6779107627
 C       -10.6980356583        1.1782950907       -3.7964829930
 C       -10.1961331965        2.5574355406       -3.0742601899
 O        -9.0141114557        2.7254949370       -2.9186294963
 C       -11.3476226393        3.5170917885       -2.6135344838
 C       -10.8660486498        4.9571624489       -2.3716659705
 C       -10.0995352780        5.2313306723       -1.0350545288
 O       -10.1500630484        4.3122505102       -0.2049114068
 C        -9.4471971918        6.5709468981       -0.8366013137
 C       -10.2881185000        7.1653868166        0.4815092829
 O       -10.7680345382        6.3887701419        1.2751465303
 C       -10.4172449452        8.6450094986        0.6913745970
 C       -11.4182458609        9.0216556781        1.7856563888
 C       -10.9665594860        8.4860712612        3.2161948627
 O        -9.8601155586        8.9074436735        3.5358894349
 C       -11.7279503812        7.4409602666        4.1243829824
 C       -10.6902750701        6.4449090312        4.6120619616
 O       -10.3185607696        5.4942633638        3.8828993544
 C        -9.9818369411        6.7593785420        5.9286031733
 C        -8.6965649355        6.0053602296        6.2668526121
 C        -8.9979218108        4.6446644648        6.9863640192
 O       -10.0927382633        4.1378890769        7.0601540816
 C        -7.7339673870        3.6993846470        7.4721816735
 C        -7.6124075518        2.7348582095        6.2167803177
 O        -6.5697384722        2.8181829091        5.5664767111
 C        -8.7777226621        1.8308639558        5.7518709426
 C        -8.2199132574        1.0103045257        4.5097934035
 C        -8.2544021227        2.0030317975        3.3405474510
 O        -9.3192504795        2.5549599233        3.0791746135
 C        -6.9196442273        2.2769533012        2.4231152072
 C        -6.4476903237        3.7584492401        2.8009467848
 O        -7.2883403481        4.6120126178        2.8629404881
 C        -4.9188751822        4.0423047686        3.2887595794
 C        -5.8491117818        1.2451339981        2.7011109174
 C        -7.5315122696        2.2863021804        0.9268345483
 C        -6.4130773514        4.4506999359        7.6072638315
 C        -8.0340938337        2.8787357514        8.7179894413
 C       -12.2818250620        8.3568938532        5.3404403607
 C       -12.8769019184        6.7748247858        3.4904679202
 C        -7.9353480421        6.5032075461       -0.2799747431
 C        -9.4560426333        7.4005548994       -2.0816317143
 C       -12.0893003819        0.7315931977       -3.3966676627
 C        -9.6231137075        0.0706123880       -3.4129821797
 C       -11.3005783725       -1.5766408491      -10.9048874129
 C       -10.5946483150        0.8518729950      -10.8079030941
 H       -14.3091987083        1.6785884266       -9.6974925538
 H       -13.8386286876        1.2498809914      -11.3955669247
 H       -12.7906502805        2.1250829775      -10.3591570361
 H       -11.6081854469        1.2270680426       -7.6879169754
 H       -10.0664694455        1.4591981738       -8.2135432782
 H        -9.3578868100       -0.1904664239       -6.2867597620
 H       -11.0714722197       -0.6681418649       -6.1932012483
 H       -11.8436950419        3.1043741530       -1.7499520739
 H       -12.0724650419        3.5718740376       -3.4678699229
 H       -11.7582837101        5.5206744949       -2.4539377066
 H       -10.0859762023        5.1627372605       -3.1050344229
 H       -10.8454340601        9.0344527912       -0.2450614339
 H        -9.4246141246        9.1682723122        0.7921625296
 H       -12.4058935608        8.6484246777        1.5033082900
 H       -11.3675491509       10.0925536254        1.8300072537
 H       -10.5735283933        6.7584516722        6.8442707541
 H        -9.5403885719        7.7421062047        5.7476800827
 H        -8.1955828420        6.6677320657        6.9754796243
 H        -8.0614199933        5.8423375464        5.3956441012
 H        -9.6666985153        2.4502240290        5.5435505025
 H        -9.1201213888        1.1993866403        6.5601170412
 H        -8.8131465200        0.0987269657        4.4051083640
 H        -7.1800524518        0.7782517477        4.7441502602
 H        -4.7314908288        5.0207306190        2.8088849922
 H        -4.2774317331        3.2255466901        3.0391511778
 H        -4.9164427859        4.2292826217        4.4072061932
 H        -6.2962391523        0.2783615081        2.6905600828
 H        -5.4237114194        1.4860090926        3.7198964625
 H        -4.9556613251        1.2498739886        1.9616552152
 H        -7.1919178649        3.0559717466        0.2733013430
 H        -8.6713513628        2.3369328337        0.9342468860
 H        -7.3009612698        1.2719573763        0.4963924816
 H        -6.2561963262        5.1493251246        6.7698221376
 H        -5.5746215461        3.8015837867        7.4916361909
 H        -6.2192413697        4.9099783226        8.5199247018
 H        -7.2277934271        2.2645026799        9.1360773019
 H        -8.7553812521        2.0101852564        8.5113390596
 H        -8.2988382607        3.5148222402        9.6114408541
 H       -13.1523840149        8.8556072269        5.0059025316
 H       -11.5206009816        9.0006493399        5.8145511473
 H       -12.6102101488        7.7876664785        6.1565101197
 H       -12.6325853736        6.0432137149        2.6857374186
 H       -13.6161144600        7.4740926887        3.1465957574
 H       -13.4157595124        6.2005236074        4.1889231782
 H        -7.6391400526        7.3834178907        0.2795754776
 H        -7.1937958776        6.6345361214       -1.1073834385
 H        -7.7384774117        5.5453000393        0.2997970607
 H        -8.6836658325        6.9522105110       -2.7833267332
 H        -9.0308172697        8.4407375460       -1.8569966082
 H       -10.4170872973        7.5786129800       -2.5274506213
 H       -12.3600117888       -0.2525961460       -3.7540272713
 H       -12.9115911170        1.4084059236       -3.7429981007
 H       -12.1271310180        0.6745688767       -2.2925769912
 H        -9.9138725250       -0.9100198613       -3.7224102329
 H        -9.5185637879        0.0836241241       -2.3544960489
 H        -8.8006621204        0.2402367371       -4.0352210395
 H       -11.3255488467       -2.3627697269      -10.2106364580
 H       -10.2817913612       -1.6860590412      -11.2991507562
 H       -11.9629987280       -1.6016797621      -11.8098345829
 H       -10.5929549671        1.9045573578      -10.3911993399
 H       -10.9348955188        1.0757912012      -11.8261462441
 H        -9.5323409543        0.7834586930      -10.9845818146
 Na       -9.4001521948        4.5326025928        1.9407190027
