117

 C       -15.5155608554       12.9327269583       -3.1355835019
 C       -14.5057638371       13.5513715525       -2.2568643899
 O       -14.6954887113       13.6342427625       -1.0451682967
 C       -13.0838726023       14.0480033270       -2.8211809845
 C       -12.2626971247       12.6871475822       -2.9924050256
 O       -12.4294359418       12.1459196113       -4.0527565857
 C       -11.5047923273       11.8567409638       -1.8435774304
 C       -12.1687583034       10.6376462859       -1.3576172455
 C       -11.3744822983        9.5988928768       -0.5706026854
 O       -10.8841171931        9.6413424847        0.5304021663
 C       -11.0510659376        8.3277157072       -1.4298609413
 C        -9.7675227394        7.6012011142       -0.7909562635
 O        -8.7012664021        7.3670520300       -1.3409768213
 C        -9.9965960629        6.9386951994        0.6040439768
 C        -8.7264321149        6.5232536440        1.3673176038
 C        -8.7306753398        5.0100236749        1.5727750266
 O        -9.7182631691        4.3080137691        1.4645425509
 C        -7.3043360805        4.1887024626        1.9126404768
 C        -7.6907843179        2.7141002310        1.7973034681
 O        -7.6934876370        2.0585112425        0.8186175280
 C        -8.1504688757        1.9986761620        3.1592124259
 C        -8.2695620280        0.4436489115        3.1100112257
 C        -9.7093500422       -0.0244843158        3.1743931646
 O       -10.4366381880        0.1508273760        2.1958866363
 C       -10.3562659895       -0.8807539872        4.3153764003
 C        -9.3352282163       -2.2125082651        4.4196542201
 O        -8.3763669961       -2.0901395483        5.2065711819
 C        -9.4810616056       -3.4991360395        3.4752427490
 C        -8.1366366088       -3.8439661738        2.6636944870
 C        -8.1160410044       -2.9159136396        1.4934850349
 O        -8.4905339320       -1.7524150410        1.6739290983
 C        -7.3518651815       -3.2832572918        0.2219035106
 C        -8.2119249192       -2.6864292221       -1.0461807529
 O        -7.7952503422       -1.8126949084       -1.7262364745
 C        -9.7372269066       -3.1047218084       -1.4196152688
 C       -10.2542413849       -2.2068991147       -2.5532373094
 C       -10.5432085617       -0.6241338734       -2.0769024182
 O       -10.7243715989       -0.5538574839       -0.8760802945
 C       -10.4802078281        0.5467934540       -3.1552720232
 C        -9.0215919579        1.0951306842       -3.1219082117
 O        -8.5273072468        1.6483120966       -2.0902599760
 C        -8.0041515483        0.9645445191       -4.2064727461
 C       -10.8722430232       -0.0282874697       -4.5587654673
 C       -11.4567149885        1.5995419415       -2.6673125085
 C        -5.9678014695       -2.5049712118        0.2356670364
 C        -7.0822344640       -4.7673466306        0.0548014322
 C       -10.1678617741        0.0501443515        5.5529431533
 C       -11.9083987885       -1.1260926127        4.1261375561
 C        -6.4542998458        4.4491994091        0.6117297508
 C        -6.6541941231        4.7331077395        3.3424626646
 C       -12.2922429774        7.4075587681       -1.3256736390
 C       -10.7059172971        8.8234241614       -2.8522706376
 C       -13.1833169207       14.9352349621       -4.1568241038
 C       -12.3297158156       14.9652311290       -1.7686674598
 H       -16.0241421056       12.1000729890       -2.7790857202
 H       -15.1485820965       12.5777524255       -4.1123690998
 H       -16.4123671043       13.6170701116       -3.1153695057
 H       -11.2339551365       12.5058555705       -1.0212123093
 H       -10.5246739473       11.6740190449       -2.1446930410
 H       -12.7759901239       10.0224897251       -1.9836839049
 H       -13.0343332449       10.9416612674       -0.7447450927
 H       -10.5574744407        6.0024566304        0.4171858753
 H       -10.6641079370        7.5966135706        1.1885424438
 H        -8.6106271099        7.0606601954        2.3432591600
 H        -7.8441685141        6.9257007437        0.8523428498
 H        -9.0494447134        2.3728747359        3.6433758775
 H        -7.3523761215        2.3710078799        3.8882488608
 H        -7.6443931995       -0.1832619040        3.8214465797
 H        -7.9758761713        0.1490261098        2.0973319805
 H       -10.2773720707       -3.3153150412        2.7095738370
 H        -9.8706378213       -4.4158882263        3.9874598260
 H        -8.2182393254       -4.9251862914        2.4161223692
 H        -7.3328248453       -3.5683802241        3.4344827197
 H       -10.4385809066       -2.9822938295       -0.5321229177
 H        -9.7192019131       -4.1714493099       -1.8108590811
 H       -11.1857242084       -2.5804282105       -2.9530955230
 H        -9.4725973901       -2.1833564101       -3.3670608406
 H        -7.9559598080        1.8973280964       -4.6844033974
 H        -8.0907144756        0.2302047487       -4.9553387474
 H        -6.9394778742        0.7306269050       -3.8419818584
 H       -10.1883839829       -0.7672166865       -4.9307833387
 H       -10.7157695801        0.8569518505       -5.2673499600
 H       -11.8152312121       -0.4619934921       -4.4611057489
 H       -12.2851084370        1.0151247815       -2.6376007673
 H       -11.6502216369        2.4003429756       -3.3718574037
 H       -11.3529224882        1.9248641644       -1.6461467732
 H        -6.1230929008       -1.7154995006       -0.4656596096
 H        -5.4008333754       -3.2705507044       -0.2146189416
 H        -5.6323730760       -2.1960626060        1.1572004654
 H        -7.0305470900       -5.3283832164        0.9950314619
 H        -6.1727101760       -5.0929551392       -0.4931793802
 H        -7.8625731557       -5.2702773197       -0.6266302663
 H        -9.7680829787        1.0314932790        5.3757750935
 H        -9.4765467412       -0.3801466048        6.2435345919
 H       -11.0577248969        0.2299004724        6.0802900500
 H       -12.2484981810       -1.6983119112        4.9335173674
 H       -12.2187494207       -1.5623009967        3.1180989099
 H       -12.3426748956       -0.0789363025        4.0662354461
 H        -5.6821673758        5.1598050027        0.8547103616
 H        -7.0658026969        4.6100059726       -0.2071771155
 H        -5.9479310735        3.5000930253        0.1726585683
 H        -7.2769739541        4.3652415612        4.1167241508
 H        -6.3183663196        5.7826624515        3.5280654636
 H        -5.6625541960        4.2043710217        3.5959087813
 H       -12.1057154980        6.8860779337       -0.4222160915
 H       -12.2784475143        6.6311620068       -2.1703617245
 H       -13.1739232906        8.0461622548       -1.3256057758
 H       -11.2512080325        9.6380837824       -3.2943313737
 H       -10.6543767263        8.0134913795       -3.5377536590
 H        -9.6561166742        9.0182487968       -2.8741762693
 H       -13.9393349336       14.5035564213       -4.9058883050
 H       -12.1144859416       14.7495545711       -4.5381081859
 H       -13.5119743171       16.0027255489       -3.9285098538
 H       -11.6964522132       15.6089262082       -2.4383555438
 H       -11.6249561270       14.3844495841       -1.1247237158
 H       -13.1013121214       15.5167495067       -1.1727043200
 Na       -9.7919240992        1.3759740927        0.5081250126
