117

 C       -15.2405194663       12.8471521212       -3.3125186132
 C       -14.2205713939       13.4994861359       -2.2682233823
 O       -14.5882991043       13.6625611270       -1.1342113792
 C       -12.8466019877       13.9106111776       -2.9715441148
 C       -12.2597855890       12.4746866552       -3.0937996049
 O       -12.4222992037       11.8074356967       -4.0970642895
 C       -11.5136342208       12.0133100304       -1.8251097671
 C       -12.4371230893       10.7814666834       -1.3010080919
 C       -11.3000117492        9.8390177086       -0.6847916710
 O       -10.7456069544       10.3241587640        0.3001961516
 C       -10.9477943664        8.4229550262       -1.5580764111
 C        -9.6548786829        7.6832466484       -0.8961171142
 O        -8.5476231344        7.8606619488       -1.3332211941
 C        -9.9040564009        6.8424864735        0.4731198713
 C        -8.7182649874        6.3429140792        1.4425706951
 C        -8.5743282010        4.8422898242        1.5834432205
 O        -9.5382811655        4.1102854564        1.7537883336
 C        -7.1167759077        4.1352279721        1.9543550264
 C        -7.5603046848        2.6755091981        2.1352366943
 O        -7.6543201548        1.8382654210        1.1271869763
 C        -8.2675075617        2.3237831711        3.4177018611
 C        -8.5041625569        0.8583855699        3.5154270707
 C        -9.8895134749        0.2084174304        3.3023886368
 O       -10.4897207267        0.4593255892        2.2875094380
 C       -10.2547676242       -0.9772135024        4.2454097309
 C        -9.0805647390       -2.0947648927        4.5368478551
 O        -8.0679965568       -1.8542926955        5.0949932764
 C        -9.5058236184       -3.5033384848        3.8373214908
 C        -8.4941990099       -3.9164577934        2.7407675416
 C        -8.3043088392       -2.8148128731        1.6269477867
 O        -8.5710476703       -1.6449702170        1.6891424532
 C        -7.4835091462       -3.2195508187        0.3810088935
 C        -8.2792784829       -2.4971365073       -0.8881332640
 O        -7.7374224423       -1.6880587613       -1.6227459018
 C        -9.7095309480       -2.9576113321       -1.1263011016
 C       -10.4667988639       -2.1795777791       -2.3443012263
 C       -10.6195199180       -0.7297670658       -2.0003831539
 O       -10.5430876582       -0.3839638216       -0.8499705122
 C       -10.6763835561        0.3291716144       -3.1987097084
 C        -9.2406542708        0.9460587368       -3.1899112255
 O        -8.9776336712        1.6248109107       -2.2652299460
 C        -8.5520225247        0.8488003611       -4.4110538497
 C       -11.2084792059       -0.1777451169       -4.5515403659
 C       -11.5463155872        1.5286584898       -2.8297856588
 C        -6.0501107969       -2.5458124350        0.3497334407
 C        -7.4916711123       -4.7771332669        0.0681610578
 C       -10.3540449029       -0.3462968469        5.6282096004
 C       -11.6226609734       -1.6974531942        3.9102449493
 C        -6.0895637115        4.4179245001        0.7275310430
 C        -6.4797811539        4.8459736498        3.2353137674
 C       -12.1241887454        7.4458620715       -1.4760835303
 C       -10.6076979617        8.5877225103       -3.0739224498
 C       -13.1130082804       14.4317667793       -4.4759051820
 C       -11.9506696944       14.8727963115       -2.1112422029
 H       -15.8532808362       12.0870222257       -2.8691452139
 H       -14.7213446443       12.2762333509       -4.2294150029
 H       -16.0349451658       13.4575478465       -3.6074913701
 H       -11.4937318104       12.8667781709       -1.1211829097
 H       -10.3923571914       11.6520454026       -1.6700693435
 H       -13.1572395378       10.2617673743       -1.9879528583
 H       -13.1674462681       10.9780366752       -0.5247930384
 H       -10.4621317827        5.9748720114        0.1312224740
 H       -10.6127650124        7.4324674059        1.0640232482
 H        -8.9065345803        6.7542391551        2.4355651535
 H        -7.8059539137        6.9528689027        1.2524678460
 H        -9.2051601879        2.9550206174        3.2711737954
 H        -7.7900754923        2.7185383662        4.2885981318
 H        -8.1797590791        0.5454775608        4.4717434642
 H        -7.8187694133        0.4216948342        2.7856208269
 H       -10.4403768253       -3.4296430559        3.2851730022
 H        -9.7084794012       -4.3501697830        4.5013997141
 H        -8.8674147980       -4.8914333020        2.4434422360
 H        -7.5478464813       -3.9264022634        3.2447649622
 H       -10.1659658432       -2.7232920261       -0.2358171678
 H        -9.6704229307       -4.0166510218       -1.2955490549
 H       -11.5381045330       -2.5032434626       -2.4602757001
 H       -10.0144551839       -2.3138193253       -3.2794914584
 H        -9.0575446307        1.3705738459       -5.2444082039
 H        -8.3308734268       -0.1966143032       -4.7165069821
 H        -7.5733122556        1.2250336387       -4.3126697949
 H       -10.7130127712       -1.0608471454       -4.9100185358
 H       -11.2058227578        0.5690014043       -5.2524854603
 H       -12.2441350943       -0.3771848256       -4.2154128773
 H       -12.6794676497        1.3361769280       -2.8731951978
 H       -11.3609821365        2.3787767282       -3.5142456208
 H       -11.2996467260        1.7415850226       -1.8224826628
 H        -6.3071422031       -1.5138803484        0.6240531679
 H        -5.4755640793       -2.8844396504       -0.5554881642
 H        -5.6648672061       -3.0219553039        1.3314625878
 H        -6.5630590308       -5.2577984109        0.3786479823
 H        -7.6250521474       -4.9171690690       -0.9709027448
 H        -8.1751583074       -5.4404100184        0.4339207607
 H       -10.6818488302        0.6757099657        5.5632448186
 H        -9.3634491457       -0.1639005704        6.0448178791
 H       -10.9993561345       -0.8301007676        6.3841376604
 H       -11.8002760395       -2.5448747051        4.6396131042
 H       -11.6555921972       -1.9376416520        2.8855502107
 H       -12.4546582676       -1.0604386965        3.8637454904
 H        -5.2431958400        3.7555448308        0.8463337108
 H        -5.7276532446        5.5086599404        0.4316861045
 H        -6.6275210554        4.1840963021       -0.1066944204
 H        -7.0762739443        4.7277353505        4.1856665271
 H        -6.2482166589        5.8239951674        3.0271669507
 H        -5.5220471376        4.5047213320        3.4421143492
 H       -12.2316664505        7.0871758212       -0.4585291677
 H       -11.8489096754        6.6264485042       -2.0445929414
 H       -13.0774446646        7.8898018206       -1.7540849210
 H       -11.5840381851        8.6241962500       -3.6079254988
 H        -9.8987404265        7.7607529137       -3.3412695064
 H        -9.9683980064        9.4318873650       -3.3576325319
 H       -14.1151412901       14.2618066317       -4.7016151976
 H       -12.5118117340       13.9039832990       -5.1672408075
 H       -12.9895924982       15.4586307427       -4.3841134229
 H       -10.9928850021       14.4621214390       -1.8614541343
 H       -12.4699881433       15.0792348191       -1.2102024120
 H       -11.8066561719       15.7801348060       -2.6826432995
 Na       -9.8485256717        1.3519845205        0.1560907278
