117

 C       -15.2049656982       12.7808909306       -3.2436351118
 C       -14.1168633844       13.4629334970       -2.4610059593
 O       -14.2557457939       13.7926205999       -1.3053157733
 C       -12.7926860241       13.8799653700       -3.1293199270
 C       -12.1768274645       12.4382895314       -3.1834798237
 O       -12.3941662660       11.6829532026       -4.0832341021
 C       -11.6784166500       11.8953713136       -1.8729555071
 C       -12.3648474902       10.5861107178       -1.3881918791
 C       -11.1963949407        9.7296941683       -0.7285288326
 O       -10.4864395661       10.1236828320        0.1707120138
 C       -10.8964291257        8.4433813704       -1.4672334806
 C        -9.6488927644        7.8786086405       -0.6959765981
 O        -8.5325292115        8.0096961617       -1.1795647694
 C        -9.8986456806        6.7798360488        0.4042146059
 C        -8.6563981032        6.4158406143        1.1838108278
 C        -8.5056477292        4.9203131771        1.6020391827
 O        -9.4964717033        4.2119661134        1.5961414364
 C        -7.0922495606        4.1726321080        1.9511047018
 C        -7.5608788275        2.7366805339        2.2098547215
 O        -7.5351498329        1.8383014353        1.2516042517
 C        -8.3557007679        2.3503640555        3.5357105447
 C        -8.3851153584        0.8098630815        3.7662677203
 C        -9.7911152210        0.1749266885        3.3276086089
 O       -10.4209703702        0.7030313230        2.4228792696
 C       -10.2993946651       -1.0435822883        4.2494608005
 C        -9.1348716302       -2.0256123214        4.3248814926
 O        -8.1017389797       -1.7067891248        4.9458160320
 C        -9.2303932563       -3.5000396337        3.9545433531
 C        -8.4347262687       -3.9219469396        2.6322516436
 C        -8.2831831975       -2.8199927579        1.6940803428
 O        -8.7634142637       -1.7038108793        1.8349224939
 C        -7.5838586401       -3.1802467676        0.3189008802
 C        -8.3137203241       -2.4456611703       -0.8516146352
 O        -7.6502919217       -1.7017785566       -1.4916859223
 C        -9.8047130580       -2.9405957054       -0.9913473760
 C       -10.4973284339       -2.2627284052       -2.2224393192
 C       -10.7116273229       -0.7169118396       -1.9713556585
 O       -10.5864805871       -0.3446032872       -0.7797245002
 C       -10.9141733875        0.2743516710       -3.0863264866
 C        -9.3376694804        0.9666301612       -3.3026873228
 O        -8.9807475327        1.5446763587       -2.2619683499
 C        -8.5592919603        0.8570237633       -4.5787867734
 C       -11.3684665749       -0.3977317652       -4.5243434226
 C       -11.9034841316        1.4143354820       -2.7629736253
 C        -6.1659380826       -2.6110900109        0.4358000889
 C        -7.6817496938       -4.6795381826       -0.0612324197
 C       -10.5554708225       -0.5413047180        5.7649881692
 C       -11.6982863126       -1.6371305266        3.9114796263
 C        -6.2038904953        4.2934612203        0.6867893008
 C        -6.5537709193        4.9317202557        3.2248762383
 C       -12.1318607895        7.5395412261       -1.3616320700
 C       -10.4456465196        8.6608020668       -2.9159602766
 C       -13.0436145276       14.3793564108       -4.5986812364
 C       -12.1004297838       14.9111926995       -2.3111646673
 H       -15.9500048055       12.2956542826       -2.6597266111
 H       -14.6512035923       12.0090138240       -3.8240759169
 H       -15.9416488310       13.4126417293       -3.9514259848
 H       -11.5449022619       12.6152912569       -1.0945157851
 H       -10.6346554244       11.5730089805       -1.9833930511
 H       -12.8504638724        9.9685512497       -2.1649573588
 H       -13.2251375421       10.6732813051       -0.7411448608
 H       -10.3803802597        5.9579139647       -0.1527511064
 H       -10.6518559719        7.1460731013        1.1296688453
 H        -8.5002059176        7.1188639473        1.9418215294
 H        -7.8363031203        6.7868348724        0.5477362016
 H        -9.3484880020        2.8726822117        3.3903566620
 H        -7.9052974568        2.7940418665        4.3824515063
 H        -8.2959000909        0.6359794821        4.8827330769
 H        -7.4859437658        0.4139885228        3.2591486331
 H       -10.1987093252       -3.8721349497        3.8398579740
 H        -8.7897684410       -3.9962244604        4.8049849194
 H        -9.0944053701       -4.5978613623        2.2024507128
 H        -7.5147715113       -4.3193285394        2.8436502629
 H       -10.3064901019       -2.7927656946       -0.0624567130
 H        -9.7332077147       -4.0512593995       -1.2754653604
 H       -11.5184635656       -2.7712330070       -2.3535950620
 H        -9.9431252974       -2.5083878782       -3.0995177393
 H        -9.0524952626        0.9701797788       -5.4957176695
 H        -7.9500270253       -0.0717634164       -4.5981995853
 H        -7.6380521232        1.5851740766       -4.5286264912
 H       -10.6522545297       -1.1905929569       -4.7791590398
 H       -11.3329781917        0.4969939365       -5.2805833244
 H       -12.4121345502       -0.7009784098       -4.4428382430
 H       -12.9742339327        1.2307091971       -2.8769184232
 H       -11.6458553539        2.2485037884       -3.5512636312
 H       -11.6720148837        1.7717577132       -1.7357413248
 H        -6.3491121176       -1.8162094416        1.1396652702
 H        -5.8416774994       -2.3635636034       -0.6222113352
 H        -5.5281128270       -3.3502284546        0.8919186349
 H        -6.7940992183       -5.2220835214        0.1635154689
 H        -8.0814929217       -5.0060869062       -0.9835880660
 H        -8.2929197746       -5.2786975027        0.6306012467
 H       -11.3781540473        0.1877508752        5.8217241682
 H        -9.7258420934        0.1667645407        6.0584154763
 H       -10.6939312047       -1.2839936205        6.5768380286
 H       -11.8752620441       -2.5034847878        4.5294069972
 H       -12.0057016808       -1.7013889287        2.8509802406
 H       -12.4850840579       -0.9355603509        4.1880149184
 H        -5.8593402627        3.3001216373        0.3748366396
 H        -5.2999812031        4.8950334200        0.7988333777
 H        -6.7804152413        4.8636878048       -0.1167485383
 H        -7.3947613896        5.2397951180        3.8086368743
 H        -5.9610366818        5.7571357585        2.9269284534
 H        -5.8558108023        4.4344606551        3.8980944406
 H       -12.6702168454        7.6714463714       -0.4327045059
 H       -11.8375532750        6.4258197833       -1.5115209169
 H       -12.8918040610        7.9077025128       -2.1257285501
 H       -11.3934565111        8.6242830153       -3.5108483942
 H        -9.5813694872        8.0264648852       -3.2604639758
 H        -9.9919876965        9.6624113816       -3.0962613060
 H       -14.0858591010       14.2470202102       -4.7957310961
 H       -12.5128984171       13.6953463256       -5.2567570269
 H       -12.7042137747       15.3703561115       -4.5418266771
 H       -11.4440108679       14.4483888828       -1.5653216318
 H       -12.8288352256       15.4518100592       -1.7401356869
 H       -11.4478923758       15.5724302214       -2.9165782523
 Na       -9.6800213306        1.4981020827        0.0733679423
