117

 C       -15.2511345594       12.7533827479       -3.1225904206
 C       -14.1327649021       13.6069485089       -2.5962856909
 O       -14.1677678219       13.8581064882       -1.4193501300
 C       -12.8116267710       13.8276994683       -3.4662705873
 C       -12.1219967020       12.4514908827       -3.3178325859
 O       -12.2281242981       11.5744871675       -4.1913622644
 C       -11.5997128603       12.0770811611       -1.9164119744
 C       -12.0839579241       10.5845745583       -1.4712828935
 C       -10.9454078288        9.7852015943       -0.7436765201
 O       -10.3477841799       10.0841831348        0.2692911250
 C       -10.7454920563        8.2918336217       -1.5132635476
 C        -9.5201210222        7.7419141658       -0.7632388142
 O        -8.4468671890        8.2978251330       -0.8082737843
 C        -9.8023936838        6.8664597939        0.4635112488
 C        -8.4504277086        6.2642552922        0.9467023449
 C        -8.5810435774        4.7894784089        1.3177556517
 O        -9.6555507062        4.2253690711        1.0646251248
 C        -7.2243305811        4.1230493733        2.0175955255
 C        -7.6632026160        2.5919793436        2.3573766474
 O        -7.4257461143        1.8067121082        1.5121797325
 C        -8.3212129989        2.5623723034        3.7116372324
 C        -8.4686668739        1.1117014874        4.0372227162
 C        -9.7429651266        0.3859959544        3.6331426820
 O       -10.3324217271        0.7577108115        2.6360060511
 C       -10.2928224376       -1.0596046393        4.4104179340
 C        -8.9953134642       -1.9951107900        4.3714951773
 O        -7.9482957260       -1.5139274105        4.6375574008
 C        -9.1727161365       -3.5128561212        4.1999143562
 C        -8.5312809104       -4.0835564154        2.9100533035
 C        -8.3940580231       -3.0108540872        1.7096261674
 O        -8.9403613376       -1.9641636172        1.9339380612
 C        -7.6968344999       -3.1740137432        0.2792428683
 C        -8.4764162203       -2.3766953712       -0.8021957785
 O        -8.0121917200       -1.5841386611       -1.6286327430
 C       -10.0188007712       -2.8401006113       -0.9172045571
 C       -10.5917579923       -2.1104231347       -2.0934699451
 C       -10.7434870133       -0.7099798607       -1.8389507573
 O       -10.8198483713       -0.1882608146       -0.7623519090
 C       -11.0039696952        0.1784864867       -3.0954671962
 C        -9.6147538501        0.9500523878       -3.1666172094
 O        -9.1335259810        1.4911991721       -2.2323020602
 C        -8.9296260598        0.8526859567       -4.6029949882
 C       -11.4638872204       -0.6391848570       -4.3610074775
 C       -12.2109927016        1.1112651273       -2.7211219404
 C        -6.1735518323       -2.7568115406        0.5953927637
 C        -7.6268929399       -4.6901048838       -0.1051946430
 C       -10.6635755099       -0.6784076741        5.8490317268
 C       -11.5431347505       -1.3952180159        3.4148186116
 C        -6.2247395281        4.1282427347        0.7433440832
 C        -6.6827858257        4.9825686420        3.1332883092
 C       -12.0613521529        7.3652501822       -1.4181688208
 C       -10.2961505328        8.5980680051       -2.9301212021
 C       -12.9006547014       14.1554342076       -5.0040754258
 C       -11.9519708719       14.8892318813       -2.8387574962
 H       -16.0571560300       13.0280143220       -2.4795840488
 H       -15.1274479788       11.6239988687       -3.1697470607
 H       -15.6374577352       13.0368703143       -4.0092444643
 H       -11.9530480541       12.7217204408       -1.1103447655
 H       -10.4676555198       12.1893649562       -1.9460308252
 H       -12.4482722588        9.9570505132       -2.2997270467
 H       -13.0133962605       10.7633151141       -0.8898589777
 H       -10.4731775368        6.0379429482        0.1467756104
 H       -10.3165279718        7.4288339894        1.2510881292
 H        -7.8615441201        6.8442447456        1.7175450117
 H        -7.7287820733        6.4490004566        0.1491953563
 H        -9.2245263665        3.1851974483        3.6574063760
 H        -7.5656254210        3.0439603352        4.4199577663
 H        -8.1798470481        0.8865561768        5.0593286208
 H        -7.8433125882        0.5626280188        3.2792533602
 H       -10.2685569697       -3.8295080047        4.3022378299
 H        -8.5428429768       -3.8805061860        5.0495948818
 H        -9.1666567824       -4.9860849380        2.6047069085
 H        -7.4882773174       -4.4104869896        3.2617123208
 H       -10.5315473539       -2.3643681807       -0.0013161746
 H       -10.2017199333       -3.8921758196       -0.9859650783
 H       -11.5026935075       -2.5806597710       -2.4084123208
 H        -9.9302815232       -2.1685907195       -3.0173553625
 H        -9.6989382953        0.3786811952       -5.2494753369
 H        -8.0577762211        0.2103147563       -4.7069107215
 H        -8.5852648187        1.6653098270       -5.1541419274
 H       -10.5434289386       -1.0762991013       -4.7340356506
 H       -11.8616278489        0.0687016289       -4.9690782808
 H       -12.2866071921       -1.3779723004       -4.1683057612
 H       -13.0805725672        0.5050188866       -2.4037690980
 H       -12.5353997931        1.7636760655       -3.4549705785
 H       -11.8077284130        1.6462780213       -1.8994028266
 H        -6.2005379442       -2.1319304935        1.4390416384
 H        -5.9029242932       -2.2418728863       -0.2610841181
 H        -5.5952301167       -3.6493330561        0.6867725859
 H        -7.3348169049       -5.3930987804        0.7263312256
 H        -6.8987675472       -4.8437877762       -0.9819555703
 H        -8.4911397367       -5.2363530246       -0.4618000425
 H       -11.6930328499       -0.4561881166        6.1055109285
 H       -10.0990856186        0.1288172309        6.2629329941
 H       -10.3614335195       -1.5329466141        6.4561182790
 H       -12.2902148099       -2.1834344899        3.7373927388
 H       -11.1655584828       -1.5556097309        2.4195224631
 H       -12.2449327402       -0.5612121831        3.2805170098
 H        -6.6626520193        4.1817204031       -0.2555049027
 H        -5.5842607823        3.1402530050        0.7108593038
 H        -5.5824072615        4.9227376744        0.9107408350
 H        -7.4331525907        5.5714158223        3.7812770091
 H        -5.9984554662        5.7349923272        2.6788879784
 H        -5.9585606306        4.4670612459        3.7728652394
 H       -12.7910213744        7.8570979327       -0.6824047955
 H       -11.8160986103        6.3551273847       -1.1625330814
 H       -12.6573401665        7.3966503935       -2.3462271968
 H       -11.0891880142        9.0542081569       -3.4973882247
 H        -9.9066303596        7.7097426612       -3.4200978074
 H        -9.4571986022        9.3029692763       -2.8953702171
 H       -13.9527121230       14.4043958356       -5.3071685474
 H       -12.6314847985       13.2127211027       -5.5458618883
 H       -12.0915081325       14.9223639874       -5.0117831432
 H       -12.2358649203       15.1066523183       -1.7679589179
 H       -12.1413232456       15.8662332241       -3.3825257642
 H       -10.8797108554       14.5650970154       -2.8188453401
 Na       -9.2725985147        1.8437333944        0.3159658985
