117

 C       -15.3505057042       12.8139522274       -3.3016094858
 C       -14.1421309678       13.6128141995       -2.6572044766
 O       -14.0636927059       14.0235958657       -1.5227543570
 C       -12.7173577505       13.7568092494       -3.5907625629
 C       -12.1336029567       12.3909252884       -3.3360428632
 O       -12.0709497908       11.5498821639       -4.1945601351
 C       -11.4847762444       12.2229401588       -1.8895038020
 C       -12.0335456170       10.7543417544       -1.3973757238
 C       -10.9752278531        9.8053552825       -0.8901027739
 O       -10.4799623474       10.1087864546        0.1809415094
 C       -10.6220196189        8.4917831042       -1.5264237465
 C        -9.4496700253        8.0336649965       -0.5392246651
 O        -8.3398119691        8.3619528820       -0.9583433361
 C        -9.7914328130        6.9689991003        0.5487788397
 C        -8.5371854534        6.1501733115        0.9870448587
 C        -8.5530942370        4.6863885350        1.2474419351
 O        -9.3866139987        3.8475947263        0.8869277003
 C        -7.2197852672        4.1832236097        1.8164797666
 C        -7.5670827909        2.7165324610        2.4303350614
 O        -7.5199216330        1.6000172115        1.8386604487
 C        -8.2585949670        2.5996626695        3.7886215673
 C        -8.4722965399        1.1290162791        4.2942896615
 C        -9.7131793748        0.4646962340        3.5914309940
 O       -10.3152868117        0.8755560072        2.6165745765
 C       -10.1120342652       -0.8635831163        4.2345409346
 C        -8.9333104812       -1.8259080876        4.3066494710
 O        -7.7840626177       -1.5879368124        4.5765121729
 C        -9.3161494879       -3.4572582646        4.1041351485
 C        -8.5049842454       -4.0741391086        2.9717668915
 C        -8.4717153720       -3.1085665982        1.8013794816
 O        -9.0246035564       -2.0428163734        1.8677537496
 C        -7.6999269291       -3.3370515671        0.4279348946
 C        -8.5441331674       -2.4999585553       -0.6133858484
 O        -8.0935692820       -1.7349812319       -1.3903578489
 C       -10.0295209662       -2.9038684574       -0.7034436849
 C       -10.7019909338       -2.1920216881       -1.9672581567
 C       -10.9308668434       -0.6588704391       -1.7252226113
 O       -10.7775043276       -0.0743115335       -0.6383296454
 C       -11.1264077001        0.1801177605       -3.0591334853
 C        -9.8389449359        0.9315069248       -3.2159125741
 O        -9.3311404263        1.5589610788       -2.2940539341
 C        -9.0734835555        1.0276600445       -4.4852750682
 C       -11.4967901256       -0.6526526227       -4.2821705162
 C       -12.2927276740        1.1809247497       -2.7614415413
 C        -6.3219921718       -2.6075061620        0.5614570129
 C        -7.6310265511       -4.7866617988       -0.0534419061
 C       -10.7000268761       -0.7832058946        5.6718662248
 C       -11.2536493308       -1.4265842925        3.4169983013
 C        -6.1384459336        4.0091878419        0.7342290940
 C        -6.8559348301        4.9938235660        3.0272621766
 C       -11.7789656933        7.4503518275       -1.5779041140
 C       -10.2324698349        8.4231820038       -3.0506465124
 C       -13.1170804982       13.8494473960       -5.1047434480
 C       -11.7449070893       14.9191631759       -3.0038333855
 H       -16.2214588826       13.1777414649       -2.9186821513
 H       -15.2801654173       11.7154012511       -3.0226725348
 H       -15.4877557446       12.8125789079       -4.4370598471
 H       -11.8271037376       12.9667371709       -1.1292113805
 H       -10.2995583460       12.3959083076       -2.0973951182
 H       -12.4961021893       10.2997413968       -2.3467734626
 H       -12.8965165963       10.9520246441       -0.7492193101
 H       -10.6479778842        6.3451366120        0.2866102645
 H       -10.0286359422        7.4678989136        1.4885787116
 H        -8.0595830943        6.6383739368        1.8471506578
 H        -7.6399473233        6.3263861664        0.2888967159
 H        -9.3623296696        2.8679244615        3.5240928005
 H        -7.8547845459        3.2155667322        4.5815803489
 H        -8.9379696345        1.3409001712        5.2123653653
 H        -7.6778177307        0.4147606547        4.3610588263
 H       -10.3501192175       -3.4946949521        3.6716083449
 H        -9.2602109508       -3.9712810323        5.1123206115
 H        -9.0711126009       -5.0554114460        2.6687972756
 H        -7.4503295209       -4.3250180850        3.2954331874
 H       -10.4888069261       -2.5724317860        0.1238395526
 H       -10.0697963557       -3.9907652335       -0.7148464453
 H       -11.6884349804       -2.6767570605       -2.2003568919
 H       -10.1618689753       -2.2665091325       -2.8620265392
 H        -9.6220888053        0.6439456623       -5.2484041758
 H        -8.1843919736        0.3771720138       -4.4781496957
 H        -8.6514567043        1.9547517122       -4.9023316586
 H       -10.6927247462       -1.2236595050       -4.5206456703
 H       -11.8401730124        0.0386088452       -5.0181140972
 H       -12.3661046329       -1.2172240469       -4.0440580121
 H       -13.0961351947        0.6309371652       -2.3345485203
 H       -12.7057984052        1.7585925264       -3.6195040239
 H       -11.8880604571        1.8845428216       -2.1328383518
 H        -6.5235353840       -1.7884738715        1.2417907053
 H        -6.1061278527       -2.1543276798       -0.4644729342
 H        -5.6006228791       -3.3789692518        0.8567328991
 H        -7.9646542513       -5.7263041942        0.3951455451
 H        -6.6383122834       -4.9183082585       -0.4771213307
 H        -8.1516541411       -4.8726361341       -0.9703779759
 H       -11.7084117255       -0.5125762524        5.6799756066
 H       -10.2109885372       -0.1821009352        6.4194230317
 H       -10.6457992293       -1.7930219483        6.0425549023
 H       -11.7853794952       -2.1738582031        4.0579670837
 H       -10.9522352921       -1.8505897030        2.4538484858
 H       -12.0745457074       -0.7865163057        3.2533936116
 H        -5.9388236840        4.8932221921        0.0872976959
 H        -6.2686789438        3.1128372150        0.0951639175
 H        -5.1987752152        3.9411485872        1.2945780413
 H        -7.6998289556        5.1503716967        3.7836612747
 H        -6.5680245648        5.9978947361        2.7790757414
 H        -5.9528534159        4.5858701839        3.4903426446
 H       -12.3960332247        7.5558681602       -0.7696217228
 H       -11.3062890877        6.4800467443       -1.6125158172
 H       -12.4236683353        7.4816485045       -2.4347284893
 H       -10.9039604467        9.0610779390       -3.6265683913
 H       -10.4854230263        7.3674664904       -3.2836974270
 H        -9.2075398065        8.5925278882       -3.3308725504
 H       -13.9882928196       14.4546910135       -5.1593724678
 H       -13.4371601915       12.8337731311       -5.4282071780
 H       -12.2351025425       14.1969224776       -5.5289043582
 H       -12.1391073418       15.4710041525       -2.1528351632
 H       -11.5479572537       15.6456961709       -3.7713942288
 H       -10.8158815481       14.4187086845       -2.6321254529
 Na       -9.2982121888        1.8374697146        0.4248072631
