117

 C       -15.2138381822       13.0591138860       -3.3391706092
 C       -14.0218529486       13.6549655521       -2.8196905379
 O       -14.0667139343       14.1540224727       -1.6901603930
 C       -12.7697535791       13.6963387870       -3.7143714647
 C       -11.9016034443       12.3831091230       -3.3531572714
 O       -11.9050952516       11.4541853828       -4.1149667445
 C       -11.4453369257       12.1020552752       -1.9824862347
 C       -12.1790775663       10.8858055621       -1.4679800680
 C       -11.0155306125        9.9217042377       -0.9401451695
 O       -10.5479517356       10.1128049039        0.1440984226
 C       -10.5711195872        8.4115911310       -1.6370586275
 C        -9.3317582306        7.9526876727       -0.7315683875
 O        -8.1688807528        8.2728517180       -0.8428306266
 C        -9.7705330914        7.1037260816        0.5117803215
 C        -8.5068115954        6.2278337162        1.0078423279
 C        -8.4886763554        4.5830777159        1.0209944485
 O        -9.3455366314        3.8713256203        0.6300308537
 C        -7.1458573482        3.9733975248        1.8841636735
 C        -7.5963774002        2.6517956532        2.5596202633
 O        -7.3783317415        1.5442706309        1.9093145145
 C        -8.3416024215        2.7756576710        4.0154403757
 C        -8.6940513262        1.3199486409        4.5485369334
 C        -9.6728499314        0.5067727872        3.5961799119
 O       -10.0464764307        1.1135512337        2.6130356907
 C       -10.1087207849       -0.9471156027        4.0764415213
 C        -8.9082404490       -1.9456358620        4.1821467242
 O        -7.7288988609       -1.6782750396        4.4979471495
 C        -9.3175001120       -3.4412833291        4.0770379243
 C        -8.4217394154       -4.0281216442        3.0144289652
 C        -8.4811151585       -3.1771914491        1.7997069020
 O        -9.0199588516       -2.0654610333        1.8928621168
 C        -7.6863098990       -3.4452530069        0.4508707383
 C        -8.6817988475       -2.6960274309       -0.5650387233
 O        -8.0783140973       -1.8305217653       -1.1687017065
 C       -10.2080704410       -2.9067364802       -0.4981078378
 C       -10.8884885167       -2.2101693941       -1.7198037761
 C       -10.9503459292       -0.6236530085       -1.6678134484
 O       -10.7354537291       -0.1067231090       -0.5760999087
 C       -11.3116881213        0.1774519110       -2.9231693878
 C        -9.9275484873        1.1032420766       -3.1582825556
 O        -9.5112041295        1.7231719546       -2.1788731815
 C        -9.1337821520        1.1709995396       -4.5189262351
 C       -11.5909914755       -0.7397312450       -4.2173466977
 C       -12.4136523016        1.3197644993       -2.7267301394
 C        -6.4116027714       -2.5620443827        0.5571448838
 C        -7.5308848918       -4.8895560522        0.0276320510
 C       -10.6455952245       -0.7717826121        5.6175546312
 C       -11.3315826718       -1.4431207423        3.3339670366
 C        -6.0775751847        3.8326394122        0.8046704254
 C        -6.7862243300        5.0388597139        2.9958281089
 C       -11.7979151951        7.5277328695       -1.4904637692
 C        -9.9873338078        8.5283921563       -3.1340514474
 C       -13.2522488710       13.7485550884       -5.1790404283
 C       -11.8821097379       14.8611723251       -3.3294592123
 H       -16.2490442469       13.5853110610       -2.9694314699
 H       -15.2020853534       12.1440069721       -2.8507851445
 H       -15.3533612457       12.7399979094       -4.4230028025
 H       -11.7831800907       12.9661446189       -1.3062886560
 H       -10.3726748489       12.0195665798       -1.9398916470
 H       -12.8739798311       10.4977092505       -2.2828497810
 H       -12.8411764182       11.2109121737       -0.6309417135
 H       -10.5967093232        6.4111291622        0.4174595303
 H        -9.9657370226        7.7339170903        1.3879293462
 H        -8.2035163863        6.5757442516        1.9731401799
 H        -7.5678915902        6.5411142677        0.4299476301
 H        -9.2163544963        3.4884875914        4.0301464186
 H        -7.5052647758        3.0504442695        4.6389450040
 H        -9.1238489671        1.4484159728        5.5446135890
 H        -7.7831575568        0.7782593910        4.5059219623
 H       -10.3174129274       -3.4287703379        3.7419760175
 H        -9.2007708278       -3.8913214885        5.0569695242
 H        -8.6445886372       -5.0652475235        2.8116401624
 H        -7.3989146053       -3.9363400126        3.3856541478
 H       -10.6027288807       -2.7336534954        0.4796425916
 H       -10.2096238501       -3.9768936254       -0.6774179349
 H       -11.9589215348       -2.5103948785       -1.7619512704
 H       -10.5141861233       -2.5916830172       -2.6316747182
 H        -9.6397820381        1.0146576785       -5.4952711392
 H        -8.2662640205        0.5255889594       -4.5764188016
 H        -8.6532800440        2.1660099444       -4.6557802613
 H       -10.8433114784       -1.4947942960       -4.2163860908
 H       -11.7274599553       -0.1197577014       -5.1313441334
 H       -12.5111072330       -1.1638571259       -4.0720297623
 H       -13.3483742686        0.9200703254       -2.4894340516
 H       -12.5303391575        1.7395028185       -3.7567485874
 H       -12.0622814608        2.2433201950       -2.1480045941
 H        -6.7774225932       -1.5121536546        0.8554099563
 H        -5.9681304469       -2.5110457808       -0.4957969702
 H        -5.7742227176       -3.1735571963        1.2415923431
 H        -8.3001936332       -5.5577009501        0.2736353307
 H        -6.6238952696       -5.3503721564        0.2636285160
 H        -7.5925377196       -4.9842567309       -1.0734746320
 H       -11.3982006019       -0.0022331200        5.5921566727
 H        -9.9029055701       -0.4492078165        6.3557108302
 H       -11.1034799220       -1.6465478575        6.0130189671
 H       -11.8603447890       -2.1474729934        3.9003394854
 H       -11.0952081145       -1.8977347227        2.3313386056
 H       -12.1439368444       -0.7195505162        3.2713055352
 H        -5.3662876964        4.7031066801        1.1261205296
 H        -6.4032591202        4.0027831724       -0.1366452861
 H        -5.3501507998        2.9614933396        0.7793190111
 H        -7.5485980338        5.3100208979        3.6032720388
 H        -6.5358076563        5.9918081100        2.5070098057
 H        -5.8987949500        4.7708650416        3.5935759355
 H       -11.9809065997        7.3593341091       -0.4647200836
 H       -11.7316044509        6.5656795629       -2.0584031897
 H       -12.6787747408        7.9310379918       -1.9006562760
 H       -10.4113963470        9.3485948922       -3.7622945551
 H       -10.1759863929        7.5486331687       -3.6526636408
 H        -8.8931605499        8.7024155938       -3.0075056639
 H       -13.7687299513       14.6500911555       -5.2857896265
 H       -13.9025909647       12.9846774428       -5.3272545609
 H       -12.3812968099       13.6198788869       -5.7329516593
 H       -12.2403454939       15.6178751857       -2.6642387299
 H       -11.5121535828       15.3527411825       -4.1909040488
 H       -11.0573290495       14.4304377649       -2.8013419378
 Na       -9.4650379373        1.5322644232        0.3910358867
