117

 C       -15.3676170857       13.2549691075       -3.3433591102
 C       -13.9026816312       13.8629747170       -3.1595906416
 O       -13.6003674087       14.5021362374       -2.1382473591
 C       -12.7699052524       13.5829319343       -4.1781953803
 C       -12.0225375560       12.2531200604       -3.6681815636
 O       -11.5684977044       11.5671098838       -4.5175602943
 C       -11.5646422404       12.1806307506       -2.1334721238
 C       -11.9393804520       10.8129879451       -1.4946209236
 C       -10.9612048657        9.8883979622       -0.6230546033
 O       -10.3722445618       10.1777546416        0.3863009740
 C       -10.4536109605        8.6063197105       -1.5598597402
 C        -9.3151872642        7.6962451893       -0.8506682506
 O        -8.1593556511        7.8593921531       -1.1690330363
 C        -9.7366752735        6.6207567166        0.1634657023
 C        -8.4707250331        6.2075135148        1.1240278657
 C        -8.1714995435        4.6639405896        1.1988869612
 O        -8.7791027299        3.9436224221        0.3859308644
 C        -7.0413362256        4.0574940991        1.8927914804
 C        -7.6255030557        2.7035226065        2.6656465805
 O        -7.6366367569        1.5141337040        2.2381566569
 C        -8.2781140807        2.8369149968        4.0802390339
 C        -8.6739570682        1.4085875438        4.7416968299
 C        -9.7235778077        0.5996145892        3.7804118490
 O        -9.8932457506        0.8950294744        2.6063082816
 C       -10.2300167863       -0.6609606212        4.2403488679
 C        -8.9387304516       -1.7465062447        4.2879725302
 O        -7.8120905958       -1.3265892395        4.4873956058
 C        -9.2535403027       -3.2650647855        4.2100314353
 C        -8.3182012452       -3.8972480244        3.1710979542
 C        -8.2983921261       -3.0670624500        1.8205033977
 O        -9.0211087562       -2.0942775410        1.8277677147
 C        -7.8391743507       -3.5228639435        0.4636768911
 C        -8.8448850943       -2.8584328471       -0.5637262735
 O        -8.4748991554       -2.0897876865       -1.4058626781
 C       -10.3141622271       -3.1169390558       -0.4094237926
 C       -11.1654883350       -2.4348414309       -1.5718422153
 C       -11.2372717125       -0.8438923484       -1.3779122768
 O       -11.1625290882       -0.3333546412       -0.2508267541
 C       -11.3675821556        0.2041464577       -2.6414726888
 C       -10.1875316520        1.2614004298       -2.8204612609
 O        -9.7237238383        1.8750313154       -1.9000151656
 C        -9.6149861091        1.5298602812       -4.2306421312
 C       -11.4429545502       -0.5697693214       -4.0488488374
 C       -12.5856310673        1.0210101061       -2.1624840394
 C        -6.3647847581       -2.8747502918        0.2674396341
 C        -7.7583343279       -4.9557217175        0.1148750192
 C       -10.7520949735       -0.7323306830        5.6897096711
 C       -11.5310749504       -0.9574039533        3.3944614556
 C        -6.0985804808        3.4181375731        0.7432752100
 C        -6.3898917991        4.9428627281        2.9860894197
 C       -11.5483323182        7.5461043156       -1.9096806593
 C        -9.8828240110        9.1604348588       -2.8098665096
 C       -13.1871449248       13.2607499937       -5.6872176247
 C       -11.7534580221       14.7975446609       -4.0174165484
 H       -16.1561271313       14.0314693425       -2.8835628175
 H       -15.6228305611       12.4069469298       -2.8324405986
 H       -15.4825639688       12.9192973997       -4.3944705956
 H       -12.2832713886       12.9405901160       -1.6625781247
 H       -10.4347919772       12.3703880823       -2.0152282202
 H       -12.1195004024       10.2832726288       -2.4378269379
 H       -12.8545134499       10.9634990346       -0.9466079628
 H       -10.0374402190        5.6464782179       -0.2113078889
 H       -10.4960291094        7.0925762626        0.7920211542
 H        -8.5774308395        6.5494944386        2.1455300235
 H        -7.6023869899        6.7712720677        0.6923592820
 H        -9.2697324423        3.4131540949        3.8997122516
 H        -7.5625457313        3.2668986955        4.7423161876
 H        -9.2467532826        1.6597141402        5.6212979333
 H        -7.7760805577        0.8107862154        4.8628566463
 H       -10.2459296489       -3.2536681139        3.6876262928
 H        -9.2815147501       -3.7918895648        5.2378000447
 H        -8.7392738487       -4.9818688787        3.2162073305
 H        -7.2725953766       -4.1180496405        3.5927072932
 H       -10.6032162650       -2.8878794502        0.5411375087
 H       -10.4366733761       -4.2341418321       -0.5078069747
 H       -12.2109337206       -2.9138123779       -1.5383968903
 H       -10.8103666870       -2.7028962674       -2.5220253497
 H       -10.2111071418        2.1140637668       -4.8640176125
 H        -9.4242126470        0.7310314485       -4.9176755717
 H        -8.6818461480        2.1360613308       -4.2017621719
 H       -10.4676727469       -0.8688396533       -4.3988539808
 H       -11.9288584682        0.2551294937       -4.6891370966
 H       -12.1127483152       -1.3644439066       -3.9658957076
 H       -13.3522841473        0.3650345901       -2.2833988549
 H       -12.7658723973        1.9623853783       -2.7025392764
 H       -12.4698749979        1.3459173139       -1.1420585125
 H        -6.5813783555       -1.9192328586       -0.1005737364
 H        -5.7641034957       -3.3678841295       -0.4611192272
 H        -5.9489013925       -2.9198519894        1.1958042496
 H        -8.0875794462       -5.2004855715       -0.9408890020
 H        -8.3199511793       -5.6836834721        0.7258700555
 H        -6.7195139752       -5.3133571807       -0.0151979153
 H       -11.5029911528        0.0378785174        5.8771138020
 H        -9.9125872783       -0.6438927012        6.4287337767
 H       -11.2468020513       -1.6935139912        5.9405718388
 H       -12.0326474317       -1.9461401517        3.5098213560
 H       -11.4624298655       -0.9698374235        2.2862172426
 H       -12.1855218329       -0.2345718436        3.8562580100
 H        -6.5090009404        2.3982464395        0.4253353207
 H        -5.1428663627        3.4553327719        0.9543472057
 H        -6.0426709629        4.0334244999       -0.1960515090
 H        -7.1385407012        5.1641870216        3.7504486176
 H        -6.1288675668        5.9832110500        2.7175648172
 H        -5.5790003011        4.3399877304        3.4919053154
 H       -12.2316229114        7.4268122594       -1.1389875413
 H       -11.1243029480        6.5077353443       -2.1026545186
 H       -12.0436050684        7.6488657808       -2.8600813445
 H       -10.6000655111        9.4335391967       -3.5743294727
 H        -9.2718235909        8.3787879092       -3.2552933212
 H        -9.3430854856       10.0095706121       -2.4903570199
 H       -13.8568928152       14.1488124987       -5.9085213230
 H       -13.6614862781       12.2436760715       -5.6112679208
 H       -12.2420164095       13.1750861935       -6.3076323776
 H       -11.9855631525       15.6869604707       -4.6681520359
 H       -10.6646303893       14.5955025045       -4.1275008670
 H       -11.9049529940       15.3342642287       -2.9907395640
 Na       -9.3186228185        1.5653156989        0.4167423375
