117

 C       -15.1772540340       13.4607444455       -3.6027812486
 C       -13.6927602742       13.9493327113       -3.3195876441
 O       -13.3008641503       14.7454997585       -2.4618143187
 C       -12.5247394561       13.3642766060       -4.3785238536
 C       -11.7970758983       12.1477003715       -3.7216196999
 O       -11.5212253999       11.1874111891       -4.4111360192
 C       -11.5533809755       12.0698972044       -2.2489186777
 C       -11.9427392373       10.6161576628       -1.5929821205
 C       -10.7460130790        9.8924064289       -0.8216622153
 O       -10.5285945799       10.1336772417        0.3425363965
 C       -10.1330947837        8.6149632944       -1.7215833422
 C        -9.2255127444        7.7119560520       -0.9260765965
 O        -8.0215866883        7.7503040039       -1.1921717512
 C        -9.7058174236        6.7002814379        0.1700763941
 C        -8.4253980582        6.3067504863        1.0656048141
 C        -7.9922894284        4.7715486651        1.0468588537
 O        -8.8509493841        4.0257541320        0.4991667899
 C        -6.8521465503        3.9859435009        1.7495707428
 C        -7.4506995942        2.6897146300        2.5531343132
 O        -7.3018900251        1.6326969513        2.1390210328
 C        -8.2826040560        3.0109480845        3.7874674860
 C        -8.8108205212        1.6552492439        4.5372261898
 C        -9.9387656900        0.7499787044        3.8636750215
 O       -10.5673349286        1.2003857897        2.8863475636
 C       -10.3531347502       -0.6558359003        4.4494184025
 C        -9.0206372224       -1.6494860921        4.4624344347
 O        -7.9731597341       -1.1903674249        4.8589803701
 C        -9.1388948560       -3.1244962380        4.2690148081
 C        -8.1723596341       -3.5578972581        3.0327690796
 C        -8.5663963233       -2.8445338684        1.6622755013
 O        -8.9946552552       -1.7277172513        1.6771817140
 C        -8.0754054241       -3.5712529147        0.3180636798
 C        -9.0003720458       -2.9384532790       -0.9858213926
 O        -8.5313326167       -2.3899500251       -1.9467456283
 C       -10.4713374827       -3.2695181748       -0.7879198060
 C       -11.3307747577       -2.4204906467       -1.6777265884
 C       -11.2281273448       -0.9527933425       -1.2104415614
 O       -10.8825737730       -0.5877386647       -0.0750015588
 C       -11.5966624134        0.1051508364       -2.3005660030
 C       -10.4074646116        1.1329816809       -2.3718537933
 O        -9.7684885308        1.3705550570       -1.3617882766
 C       -10.1592148661        1.8576945253       -3.6250372660
 C       -11.7796531452       -0.5841921250       -3.6930991295
 C       -12.9341638887        0.9372156699       -1.9160637983
 C        -6.4992969037       -3.2015242182        0.2589874526
 C        -8.1726503680       -5.0761578340        0.5327660645
 C       -10.7184452455       -0.2466593338        5.9921161955
 C       -11.6319185880       -1.0939338886        3.6555232344
 C        -5.7600117260        3.5046586225        0.8009827310
 C        -6.3437582062        5.1482364415        2.8117960929
 C       -11.3308952682        7.8544646316       -2.3519328084
 C        -9.3161788783        9.1431928467       -2.9047027973
 C       -13.1752184569       12.7815350159       -5.7377915440
 C       -11.5384710232       14.4506482907       -4.6717746562
 H       -15.7989079484       13.7705712409       -2.6656942045
 H       -15.4729799800       12.5146936169       -3.8228948381
 H       -15.4175216413       14.0243021801       -4.4842192321
 H       -12.0881392435       12.7032562444       -1.6420974362
 H       -10.5087961355       12.1633860904       -2.1627431463
 H       -12.3240653487       10.0355960809       -2.4008287712
 H       -12.6305083646       10.9705985034       -0.8590549627
 H       -10.0473815545        5.8526736322       -0.4580334158
 H       -10.5068704657        7.0439496327        0.8340947331
 H        -8.7244355259        6.5755201678        2.1357509730
 H        -7.6315984947        6.9348816228        0.7395472985
 H        -9.1119747095        3.6183944153        3.5036661990
 H        -7.6077134177        3.5367652272        4.4639277279
 H        -9.3405050139        1.9935691733        5.4616513637
 H        -7.9571478954        0.9244529684        4.7029274451
 H       -10.1595937659       -3.4574842369        4.2247824270
 H        -8.7852505132       -3.4812925693        5.2088543089
 H        -8.3516256497       -4.6127981235        2.9330698234
 H        -7.1920579795       -3.5470070593        3.3493402675
 H       -10.7537116480       -3.0828027704        0.2653866780
 H       -10.5392579006       -4.4438569651       -0.9413077427
 H       -12.3372056839       -2.8729754062       -1.7247352024
 H       -10.9249411724       -2.4233494638       -2.7076488883
 H       -10.9480930538        2.3681379344       -4.1107911232
 H        -9.8740433510        1.2141500469       -4.4951008438
 H        -9.3744044044        2.6592755431       -3.4089698222
 H       -10.7576414803       -0.7844353816       -4.0485640360
 H       -12.1149277910        0.2178100303       -4.4786474978
 H       -12.3874434108       -1.4979463497       -3.7295470557
 H       -13.7618860525        0.3165535136       -1.4983423487
 H       -13.2787304127        1.6378715695       -2.7847644538
 H       -12.6418282334        1.6160928102       -1.1160283258
 H        -6.4231213390       -2.3246024193        0.9259430760
 H        -6.3355674277       -2.7991380016       -0.8074493236
 H        -5.8713336440       -4.0376327188        0.5943640936
 H        -7.4021109631       -5.6364530867       -0.0362433911
 H        -9.0532557878       -5.5970542618        0.1447018696
 H        -8.0002802063       -5.3240888234        1.5375326032
 H       -11.7243329830        0.0600963186        6.1632679474
 H       -10.0017443757        0.4569584632        6.3940066301
 H       -10.5948880701       -1.1680846026        6.5637079531
 H       -12.2491856606       -1.8129612723        4.2501635087
 H       -11.4413277417       -1.7858104140        2.8575417629
 H       -12.1511803934       -0.2396442742        3.3369468706
 H        -5.8103672479        4.0825869854       -0.1595086529
 H        -5.9897660593        2.5396915242        0.4907662114
 H        -4.7268026216        3.2676622351        1.1577921397
 H        -7.2457775827        5.5866442938        3.3191951615
 H        -5.8026901628        5.9075346265        2.3244732019
 H        -5.7174668276        4.7684606381        3.5928796175
 H       -11.7628771210        7.1492552654       -1.6173678080
 H       -11.0376772700        7.0136453376       -3.0555017326
 H       -12.2141262132        8.4682651908       -2.7360218260
 H       -10.1392268521        9.7183157008       -3.4171728510
 H        -9.1265062891        8.2980820829       -3.6148371307
 H        -8.4511850129        9.7322634855       -2.6249243704
 H       -13.5973192637       13.6174999938       -6.2315973536
 H       -13.8173327776       11.9726512949       -5.4418146782
 H       -12.3774664267       12.3713309272       -6.2860279114
 H       -10.9335274049       14.2492569823       -5.5309025655
 H       -10.8557001717       14.5749382574       -3.8564366276
 H       -11.8354009395       15.4717624167       -4.8867179931
 Na       -9.2540293630        1.4244628692        0.8568328564
