117

 C       -14.9605361884       13.6235468601       -3.5758324603
 C       -13.5860464090       13.9461969956       -3.5614440285
 O       -13.1222523653       14.6792329193       -2.6825167498
 C       -12.5475220194       13.2198746180       -4.4450109621
 C       -11.8720109862       11.9638799750       -3.7232084230
 O       -11.5557179303       11.0450674716       -4.4645804326
 C       -11.4841398293       12.0384891571       -2.1686653088
 C       -11.7679327516       10.6716282273       -1.6021810669
 C       -10.7011094624        9.7713861201       -0.9258615990
 O       -10.4175321720        9.9496856319        0.2452852931
 C       -10.2176685502        8.6024035371       -1.7802533035
 C        -9.0881249163        7.6997661994       -0.9479219172
 O        -7.9245689715        7.8919720116       -1.1426730847
 C        -9.5871092162        6.8402474825        0.2638743207
 C        -8.3203777832        6.3223180381        1.0291133065
 C        -8.1920115592        4.7258245758        0.9554562647
 O        -8.9723027782        3.9877739995        0.4463662762
 C        -6.9099600394        4.0728408914        1.7861783349
 C        -7.3857727974        2.8023161286        2.5694630998
 O        -7.1607007612        1.6602204663        2.0901982894
 C        -8.4308612845        3.0127502513        3.6877982139
 C        -8.8081649430        1.7226747529        4.4468033577
 C        -9.9616229380        0.9085373654        3.7906803184
 O       -10.6934483503        1.3053951619        2.9182270960
 C       -10.2886140010       -0.4869578775        4.4424958394
 C        -9.0443676173       -1.5086945569        4.5606358965
 O        -7.9300416477       -1.1325224689        4.9642806735
 C        -9.1513576677       -2.9973464680        4.1155502817
 C        -8.2168770141       -3.4403581753        3.0020910912
 C        -8.4993439622       -2.7790913165        1.6768864696
 O        -8.9895671048       -1.6506675492        1.6533065957
 C        -8.0513280225       -3.5468214129        0.4265950716
 C        -8.9108655291       -3.1389136034       -0.8163280578
 O        -8.5093780428       -2.6185080455       -1.8311459275
 C       -10.4741968137       -3.4673855022       -0.7146798678
 C       -11.4380615223       -2.5002247872       -1.5314188802
 C       -11.3461886493       -0.9906406886       -1.2772643860
 O       -10.7705459109       -0.7119323857       -0.2615600335
 C       -11.7604155446        0.2094078640       -2.2248056710
 C       -10.5432987596        1.2347707453       -2.2362967818
 O        -9.7308534934        1.2561569268       -1.3256852664
 C       -10.3272688414        1.9557224617       -3.5931101599
 C       -11.9254200304       -0.3249045762       -3.7691650861
 C       -12.9850499791        1.0326173797       -1.7909736195
 C        -6.5082662335       -3.2375427366        0.2312966521
 C        -8.3104635430       -5.1024201763        0.4653607469
 C       -10.6957476836       -0.1939601792        5.9244726213
 C       -11.5714702874       -1.0656874212        3.8724085689
 C        -5.8187101171        3.7545692764        0.7347765829
 C        -6.3736096976        5.1492343760        2.8604790089
 C       -11.2481487828        7.7126303727       -2.4609100035
 C        -9.3051822352        9.2937142459       -2.9712866965
 C       -13.1024141469       12.6224614242       -5.7091304440
 C       -11.5507207995       14.3867984945       -4.6381414619
 H       -15.2647278362       13.5889849113       -2.4960952632
 H       -15.2978250863       12.7160111102       -4.0233382345
 H       -15.4845005455       14.3678527521       -4.2021865722
 H       -12.1952984138       12.6793651287       -1.5072584140
 H       -10.4366293699       12.2688684873       -2.0565774378
 H       -11.9695500092       10.1175350728       -2.4799448765
 H       -12.5514770898       10.8395188669       -0.9659140855
 H       -10.3214452263        6.0678160708       -0.0192399698
 H       -10.0701641720        7.5914339535        0.9266384427
 H        -8.4828878786        6.5802801305        2.0513829538
 H        -7.4173517517        6.8393143350        0.6207884820
 H        -9.3558577383        3.6020622628        3.3877553796
 H        -7.8372387600        3.5801588365        4.3528210031
 H        -9.3692917624        2.0690350640        5.3483311962
 H        -7.9432562781        1.0397428727        4.6894949810
 H       -10.2080287349       -3.2055972854        3.9539777228
 H        -8.9690277206       -3.5880975878        5.0533666793
 H        -7.9795559347       -4.5146634001        2.9770490516
 H        -7.2610191787       -3.0482098557        3.4546194353
 H       -10.8405436302       -3.6340567113        0.2895934532
 H       -10.5271398481       -4.4850191422       -1.2333873708
 H       -12.4823005530       -2.8572455369       -1.1662797829
 H       -11.4136408655       -2.7469989413       -2.5587804375
 H       -11.1613269871        2.4279341207       -4.1353788348
 H        -9.8228373261        1.5444349199       -4.4423906737
 H        -9.7993239925        2.8429964898       -3.1948230546
 H       -10.8720345333       -0.4631362927       -4.1765791200
 H       -12.2945035656        0.5426803406       -4.4196282780
 H       -12.5123354399       -1.2446618674       -3.9208203603
 H       -13.7716036164        0.3672986627       -1.5396145437
 H       -13.3250364574        1.8220967233       -2.4846381509
 H       -12.7418078699        1.5228715924       -0.7744949866
 H        -6.2056460935       -2.4536798464        0.9120914878
 H        -6.4234958190       -2.9157141020       -0.7700762479
 H        -5.9469073384       -4.1113405630        0.4717619273
 H        -7.8797156644       -5.5237489407       -0.4786800097
 H        -9.3367011177       -5.4369655261        0.3260250790
 H        -7.8567851869       -5.6322941026        1.3817208382
 H       -11.6061786602        0.4189505144        6.0034205518
 H        -9.8925915290        0.2464116789        6.5827517891
 H       -10.9873460466       -1.2093720471        6.2785075978
 H       -12.2014797226       -1.6057769917        4.5557254893
 H       -11.4614244531       -1.8599943587        3.0962469671
 H       -12.0522661072       -0.2073147721        3.3748373965
 H        -5.3161869062        4.6117672408        0.2249310940
 H        -6.1829121031        3.1698200511       -0.0871924177
 H        -5.1462515040        3.0352591627        1.1806409884
 H        -7.1659860000        5.5994569545        3.3509191467
 H        -5.6622667299        5.8590962463        2.3867345381
 H        -5.7410744269        4.5905446916        3.6045592996
 H       -11.7898366472        7.0320100609       -1.7423456158
 H       -10.6989935486        6.8254582302       -2.9425431999
 H       -12.0200769895        8.2074499625       -3.0376205393
 H        -9.7166687852       10.2251000720       -3.4221666476
 H        -9.2002293567        8.5159531872       -3.7572909970
 H        -8.3376316303        9.4376781718       -2.4669974029
 H       -13.4675067633       13.4647872836       -6.3735477456
 H       -13.7881572769       11.8549538503       -5.3739615755
 H       -12.2134711555       12.0750940573       -6.1857655597
 H       -10.5489910315       14.0808330060       -5.0020191237
 H       -11.4124432766       14.9592924246       -3.7163108256
 H       -11.7749345003       15.1600407889       -5.4124755391
 Na       -9.4250256911        1.0828423363        1.1072420518
