117

 C       -14.7462400328       13.5701757944       -3.8334013645
 C       -13.2067339247       13.9187249784       -3.5725385833
 O       -12.7572423456       14.6346378915       -2.7082316098
 C       -12.3020901826       13.0044708120       -4.5784237222
 C       -11.8879073065       11.7235858106       -3.8723185892
 O       -11.8586972201       10.6865084486       -4.4839917633
 C       -11.4666704498       11.7978684459       -2.4207620852
 C       -11.7973888339       10.5077749422       -1.5424629768
 C       -10.6714077204        9.7314295051       -0.8979094508
 O       -10.2190032547        9.7930153864        0.2272254975
 C        -9.7335437154        8.5989780756       -2.0260147438
 C        -8.7761796706        7.9510156664       -1.0413868266
 O        -7.6112088873        8.1196705964       -1.2289782582
 C        -9.3412240108        6.9799711783        0.0046446123
 C        -8.2181126953        6.4611818810        0.8312028760
 C        -8.3236052532        4.9455862892        1.1231121108
 O        -9.3059767021        4.2755792281        0.7566573436
 C        -7.0216264610        4.2739059564        1.7405031803
 C        -7.6548178488        2.8037811275        2.3167108759
 O        -7.5310499990        1.7652098143        1.8390785291
 C        -8.6965841552        3.0189103976        3.4122767789
 C        -8.6948720260        1.7846717234        4.3362118579
 C       -10.0107525635        0.9928622859        3.9487686808
 O       -10.6683621498        1.4091287702        2.9513582838
 C       -10.3863284550       -0.2790505726        4.7175696776
 C        -9.1262037226       -1.3387659973        4.6446703251
 O        -8.0849348173       -0.7341076203        4.9546859982
 C        -9.2147560431       -2.7654434110        4.2075822114
 C        -7.9904564721       -3.2176503857        3.1569081693
 C        -8.4354181195       -2.7162287930        1.6773395348
 O        -8.7831218975       -1.5690182980        1.5998804578
 C        -8.2379296154       -3.6664424474        0.3648642158
 C        -9.1865883886       -3.2640401142       -0.8358944086
 O        -8.8044556596       -2.8438536132       -1.8973547285
 C       -10.7811418354       -3.4421270904       -0.7077183988
 C       -11.2862317559       -2.5369907073       -1.8847139673
 C       -11.2306363017       -1.0132315178       -1.2631720669
 O       -11.0069339300       -0.8801803445       -0.0731498341
 C       -11.7629421816        0.2578592181       -2.0048619584
 C       -10.6657370785        1.3159340506       -2.0183716664
 O        -9.7800498689        1.3865852967       -1.1877020447
 C       -10.6618468995        2.4603577641       -3.2049418524
 C       -12.2494158185       -0.2842321806       -3.3769867325
 C       -12.7787296894        0.8306215594       -0.9645489365
 C        -6.6926373293       -3.3430726915        0.0112045825
 C        -8.4817026512       -5.1069711541        0.8994125276
 C       -10.6986046748        0.0487275059        6.2175859708
 C       -11.7589921650       -0.6679598220        4.1750810857
 C        -6.1109570900        3.9940387633        0.4912096776
 C        -6.5707339257        5.1967487928        2.8794429332
 C       -10.6905890734        7.4317750907       -2.5394537749
 C        -8.9761224566        9.1113462646       -3.3158155715
 C       -13.0965473260       12.5343827146       -5.8014307868
 C       -10.9050236590       13.6738036821       -4.9469964529
 H       -15.1234244018       12.7275588400       -3.1434963590
 H       -14.8228514911       13.2312330445       -4.8366444455
 H       -15.3814367296       14.4323778117       -3.8742711773
 H       -11.8225561887       12.6414548332       -1.8721060225
 H       -10.4384943354       11.8224558207       -2.4567303025
 H       -12.5010440679        9.9276209888       -2.2356939416
 H       -12.2617587197       10.9297847314       -0.6049849177
 H        -9.8768475325        6.1599536094       -0.4747214321
 H       -10.0680935112        7.5359851523        0.5877900091
 H        -8.5129325920        6.9464581911        1.8313929737
 H        -7.2414966594        6.7250753647        0.4315400349
 H        -9.6246288638        3.2651428694        2.9334814270
 H        -8.3758224432        3.7721671147        4.0634794050
 H        -8.7196327781        2.1494894652        5.3632362038
 H        -7.8174480772        1.1522110178        4.1521883896
 H       -10.1597331928       -3.1810789054        4.0441562862
 H        -9.0361135783       -3.2175702104        5.1607701716
 H        -7.7081708395       -4.2351464121        3.3236171323
 H        -7.1083019197       -2.7226921928        3.3708042135
 H       -11.0297944457       -2.9427943350        0.2255073012
 H       -11.1352241463       -4.5672095588       -0.5723134926
 H       -12.3315685542       -2.7174206080       -2.1696159106
 H       -10.6118453826       -2.7438253235       -2.6960658581
 H       -11.5928396915        2.8185992798       -3.5636783133
 H       -10.3435475963        2.0617819583       -4.1542817177
 H       -10.0834156006        3.4159011322       -3.0001017640
 H       -11.4860456838       -0.9251965261       -3.8107679224
 H       -12.6591727890        0.4171537189       -4.1874277890
 H       -12.9972810188       -0.9721356066       -3.1809368153
 H       -13.6423128679        0.2499253002       -0.9437584665
 H       -13.1412335886        1.8343553626       -1.3044586003
 H       -12.4468971722        0.8070945909        0.1062114010
 H        -6.5427398584       -2.2398939950       -0.2579216103
 H        -6.4436999857       -4.0369134329       -0.8720832038
 H        -6.0310159389       -3.4409420813        0.9049288701
 H        -9.1852702875       -5.6574609448        0.2873798635
 H        -8.7880748325       -5.1520906869        1.9069140698
 H        -7.5408173570       -5.6127133012        0.9113415383
 H       -11.2088804339        0.9656391911        6.1918670354
 H        -9.8086001502        0.2621288527        6.7843763407
 H       -11.2830374640       -0.7250307784        6.6586455728
 H       -11.9894626329       -1.7529071124        4.1017264064
 H       -11.9901109732       -0.1886455983        3.2353928144
 H       -12.5063783808       -0.1694536027        4.7031668241
 H        -5.0210856582        4.2824594506        0.7831208174
 H        -6.1720459746        4.6361281761       -0.2910135669
 H        -6.0913001543        2.9672685631        0.0826826723
 H        -7.2940291991        5.0309909008        3.6176233611
 H        -6.4084879628        6.2221825352        2.6462432614
 H        -5.6039268428        4.8152787661        3.2340849474
 H       -11.4824125572        7.1203574207       -1.9114626017
 H       -10.0529680952        6.5091336135       -2.7868536352
 H       -11.1666217400        7.6085478529       -3.4789200351
 H        -9.8191912618        9.2630141878       -4.0002790206
 H        -8.2025633334        8.3466076859       -3.5430884589
 H        -8.4198436119       10.0103936198       -3.1511924692
 H       -13.4549113723       13.4353054677       -6.2060068177
 H       -13.8237665640       11.8780276917       -5.5155637610
 H       -12.4214590522       12.1043598197       -6.4780298020
 H       -10.0224202707       13.1153352879       -4.7266559965
 H       -10.7821848436       14.5967773175       -4.4409451144
 H       -10.7587835727       13.9978696144       -5.9866789373
 Na       -9.4411820522        0.3598917525        0.9148175837
