117

 C       -14.6178282248       13.7233980971       -3.7160327862
 C       -13.1503538606       13.7735436166       -3.7340977488
 O       -12.5173672728       14.4900275084       -2.9619655873
 C       -12.2387351179       12.9104228411       -4.6281011035
 C       -11.8773053922       11.5236798172       -3.9125352760
 O       -12.0800476414       10.4589712491       -4.4980038113
 C       -11.4107448368       11.6391565485       -2.4429107504
 C       -11.7242267707       10.3941722806       -1.6914351516
 C       -10.4676548098        9.7081446232       -1.1329005344
 O       -10.2028333283        9.7727596957        0.0513657782
 C        -9.7552584524        8.6449941763       -2.0744033108
 C        -8.6173000556        7.9585695994       -1.0862905829
 O        -7.4448551874        8.1938768406       -1.2463378634
 C        -9.1313241251        6.9301311919       -0.1402631839
 C        -8.1826185722        6.5633713642        0.9606446315
 C        -8.4056340601        5.0891763123        1.1522873601
 O        -9.4691134801        4.6061883688        0.9286598568
 C        -7.1418982322        4.2264222324        1.6886552706
 C        -7.7946715599        2.9463242588        2.1920036098
 O        -7.6740981066        1.8921289096        1.5241623264
 C        -8.6833918914        3.1600683966        3.4540507183
 C        -8.7828630300        1.8509666079        4.3828611395
 C       -10.0393460367        1.0110263310        3.8689247377
 O       -10.6385441623        1.2800151286        2.8529877308
 C       -10.4814895209       -0.2223238912        4.7983155088
 C        -9.1463192745       -1.3105356942        4.6220771046
 O        -8.0556577109       -0.8553471111        4.9326784270
 C        -9.1718987098       -2.7506414821        4.1321104534
 C        -8.0627230909       -3.0977782175        3.1552526967
 C        -8.3939113631       -2.6349509184        1.7923228091
 O        -8.7353630292       -1.4751684685        1.5307953067
 C        -8.2860695779       -3.6509985861        0.5496193051
 C        -9.2040696375       -3.3534845892       -0.6645959740
 O        -8.6498511906       -2.9635191033       -1.6770270640
 C       -10.7838895893       -3.5182790049       -0.8188777580
 C       -11.2769833241       -2.4081332901       -1.7935352443
 C       -11.4038931809       -1.1012235344       -1.0689737972
 O       -11.0723220916       -1.0725247180        0.0799361228
 C       -11.8213074116        0.2148801543       -1.8275241952
 C       -10.7061568910        1.3177868079       -1.8781828321
 O        -9.7480849925        1.4718699540       -1.1547635763
 C       -10.8529919886        2.3473759196       -3.0402030187
 C       -12.3458371733       -0.0663174093       -3.2431411440
 C       -12.8500059161        0.9462171661       -0.9352018663
 C        -6.8851062858       -3.5190075966       -0.0598868751
 C        -8.5418190617       -5.1575870021        0.8827700843
 C       -10.6716747375        0.1317961069        6.3110968717
 C       -11.9832538827       -0.7990416772        4.3868313581
 C        -6.1309731624        3.8877579226        0.6454896296
 C        -6.4075099083        5.0910714761        2.7066783688
 C       -10.7451711113        7.6328143279       -2.5805107507
 C        -9.0081153699        9.1855597527       -3.2607876254
 C       -12.9531301822       12.4194076767       -6.0185351340
 C       -10.8137407430       13.6076320438       -4.7663866767
 H       -14.8479384736       12.7551767719       -3.5204268632
 H       -15.1353723024       14.1086805928       -4.7390319628
 H       -15.0051905693       14.3792476630       -2.9296305582
 H       -11.8375198331       12.5753366255       -1.9603474192
 H       -10.3570533914       11.7503907773       -2.4191050639
 H       -12.2481255641        9.8321616400       -2.4990177030
 H       -12.3172799674       10.5690891235       -0.8388363334
 H        -9.2740849377        6.0548080247       -0.7968271286
 H       -10.1468179989        7.2038670568        0.1746483560
 H        -8.5294296844        7.0930614501        1.8043304109
 H        -7.1525263020        6.7172691220        0.6611352467
 H        -9.5969796235        3.5327416686        2.9996753238
 H        -8.2185440861        3.9310042757        4.0021421668
 H        -9.0517380550        2.1509545593        5.4299102972
 H        -7.8538980012        1.1986692212        4.4420464391
 H       -10.0973343057       -3.1631999727        3.9121707388
 H        -8.9588443026       -3.3234781860        5.0359587802
 H        -7.8612461228       -4.1272764066        3.1952992965
 H        -7.1339727702       -2.6152205867        3.3987601398
 H       -11.4266004206       -3.5576802887        0.1365511850
 H       -10.9594597747       -4.4966141816       -1.3500081616
 H       -12.3160338626       -2.7410411624       -2.1677291522
 H       -10.5789092739       -2.3675910174       -2.5714738881
 H       -11.9365954488        2.7618693016       -3.0313011642
 H       -10.7205756742        2.1752826279       -4.1027168314
 H       -10.3251064775        3.2368709982       -2.7622976563
 H       -11.4577237087       -0.4500889932       -3.8886306974
 H       -12.6604268848        0.8887429464       -3.6673468830
 H       -13.1407995258       -0.8163660612       -3.4752000881
 H       -13.6097487175        0.2443530524       -0.5256128339
 H       -13.4430773986        1.6529300879       -1.5231973867
 H       -12.4240061045        1.3757713824        0.0555362996
 H        -6.8700336674       -2.7501270122       -0.9003056949
 H        -6.6052711675       -4.5011631691       -0.4146966485
 H        -6.1662496136       -3.0164544172        0.6838574602
 H        -8.9724885758       -5.5490861756       -0.0325572838
 H        -9.0839682898       -5.3214419061        1.8129101906
 H        -7.5666393569       -5.7223836010        1.0072991367
 H       -11.4120781013        0.8819061344        6.5053060465
 H        -9.7218830706        0.4548256673        6.6765862042
 H       -10.8589622623       -0.7835635478        6.7780259104
 H       -12.1307347744       -1.7694406783        4.7163536488
 H       -12.3015798574       -0.6540167967        3.3575245325
 H       -12.7662297155       -0.1671504117        4.8265910409
 H        -5.1348374768        3.7047419950        0.9484141315
 H        -5.9122491304        4.9061664207        0.0774484419
 H        -6.3784583672        3.1718484601       -0.1104544950
 H        -7.0213942835        5.6115971823        3.3418706734
 H        -5.8359040170        5.7556196643        2.0518056170
 H        -5.6204681140        4.4861629355        3.1896983526
 H       -11.4719766566        7.0033881860       -1.8979934109
 H       -10.0843967667        6.9193245923       -3.1965581153
 H       -11.4016520282        7.9643777422       -3.4167182499
 H        -9.6178138625        9.1225643150       -4.1590186355
 H        -8.0368965035        8.6713432709       -3.2068008120
 H        -8.6560856892       10.2200172265       -3.0163516099
 H       -13.2551085055       13.2965969626       -6.5393119111
 H       -13.8261082760       11.8927368188       -5.7676746696
 H       -12.2396520064       11.8850654328       -6.6118570621
 H       -10.0245879337       12.8765629589       -4.7494921867
 H       -10.5306664444       14.3215819773       -4.0321054065
 H       -10.6671084996       14.1924810235       -5.6434111557
 Na       -9.2892019982        0.5186243120        0.8461554282
