117

 C       -14.6003035044       13.8149285978       -3.6779535474
 C       -12.9935443215       13.7269242550       -3.8328662921
 O       -12.3512432267       14.4385964027       -3.1030673641
 C       -12.1043328022       12.7476114176       -4.7745250026
 C       -12.0079235288       11.3998261825       -3.9526536472
 O       -12.2354287755       10.2669463119       -4.3548847072
 C       -11.3527951847       11.4971466104       -2.5892785310
 C       -11.7054138737       10.2397040350       -1.7472165329
 C       -10.4612632275        9.5055412581       -1.2400155087
 O       -10.1090381530        9.7940478713       -0.1097325276
 C        -9.5776691502        8.6406300373       -2.2366427008
 C        -8.5075065507        7.9969890819       -1.2628438429
 O        -7.3166953914        8.3148399331       -1.2604107919
 C        -9.0783718647        6.9427232195       -0.2975937730
 C        -8.1766567231        6.6793650691        0.9872369211
 C        -8.4146164605        5.2028262631        1.2307912996
 O        -9.5260130523        4.7408614609        1.1599882917
 C        -7.1663941218        4.3287558140        1.6166607386
 C        -7.8854284853        3.0624083682        2.1812052026
 O        -7.8497817064        2.0557287862        1.3898429490
 C        -8.6534141845        3.1211191091        3.5213773085
 C        -9.0550534474        1.8525856093        4.3585399408
 C       -10.1539864499        0.9721783649        3.8970785436
 O       -10.5950943154        1.0355496142        2.7916378282
 C       -10.4401990746       -0.2707782994        4.8556919066
 C        -9.2680499795       -1.1836097483        4.6302974833
 O        -8.1752036353       -0.8367985145        4.9422484446
 C        -9.3374015752       -2.7631549544        4.1568005072
 C        -8.1919640187       -3.0246507389        3.2157529086
 C        -8.4259414001       -2.6352823525        1.7564334125
 O        -8.6344313530       -1.4804989123        1.5045668255
 C        -8.3274147881       -3.7001987945        0.5548424374
 C        -9.2644480927       -3.2984608921       -0.7251482198
 O        -8.6085306252       -2.9824329698       -1.7023801779
 C       -10.7054483833       -3.5605783593       -0.9409203780
 C       -11.4128780948       -2.4126203515       -1.6745545203
 C       -11.4104877359       -1.1493262642       -0.8396119171
 O       -11.1299425224       -1.0847172973        0.3407165631
 C       -11.8276780804        0.2805172792       -1.7241880658
 C       -10.7045535167        1.3961900726       -1.8843901024
 O        -9.7502155902        1.4330188601       -1.0881681560
 C       -10.9992014168        2.3461371798       -2.8809658360
 C       -12.4867501355        0.0527485195       -3.0900693957
 C       -13.0386335793        1.0010407895       -0.8964938719
 C        -6.7876714102       -3.7015435787        0.1377393207
 C        -8.6545821923       -5.2320691779        0.9878616534
 C       -10.4293203015        0.1858655825        6.3048177149
 C       -11.7789565490       -0.9247829752        4.4659428254
 C        -6.1857227838        3.7970108865        0.5037726554
 C        -6.2245538234        4.9977164206        2.7772530187
 C       -10.7217101124        7.6631770160       -2.5827445502
 C        -8.9513389598        9.5391831352       -3.3264127281
 C       -12.6682757597       12.5305683755       -6.2133568551
 C       -10.8330257244       13.3995789492       -4.8613093033
 H       -15.2445719941       12.9380240497       -3.8622299061
 H       -15.0528223922       14.6731147537       -3.9838929170
 H       -14.6011648931       13.9492317559       -2.5585191516
 H       -11.8155945777       12.3848137794       -2.0830413255
 H       -10.2057696713       11.7795237914       -2.6412113570
 H       -12.3650766832        9.8021587161       -2.4385684548
 H       -12.2833665116       10.4736620415       -0.8795400025
 H        -9.0547831193        6.0199971021       -0.9080469082
 H       -10.1520240367        7.1265510048       -0.1249727003
 H        -8.5014375035        7.3224524289        1.7339936746
 H        -7.1350379518        6.7062978601        0.6612216628
 H        -9.4905472039        3.6644357347        3.0232008161
 H        -8.0720697613        3.9050538309        4.1717150472
 H        -9.3130081670        2.1699546163        5.4055538300
 H        -8.2320474013        1.0835901670        4.4934510521
 H       -10.2517918348       -2.8244035618        3.4965612371
 H        -9.5547098025       -3.5934185558        4.8506480971
 H        -7.8411880334       -4.0752634137        3.3081346518
 H        -7.2822026512       -2.3799033116        3.4613634084
 H       -11.2793201116       -3.8162436348       -0.0117764490
 H       -10.7478667371       -4.3903889692       -1.5504354812
 H       -12.4007876715       -2.7989354889       -1.9261999631
 H       -10.8116635317       -2.1492162557       -2.5918566806
 H       -12.0117027070        2.7733668899       -2.7621742650
 H       -10.9885043378        1.9805755909       -3.9563844322
 H       -10.3524263967        3.2107996075       -2.8709747776
 H       -11.7694883874       -0.1124248500       -3.9249598298
 H       -13.0266914653        0.9849443434       -3.2693832442
 H       -13.2780510360       -0.7863292089       -3.2870303627
 H       -13.7661979628        0.3132523606       -0.2945642669
 H       -13.7097535149        1.5838884338       -1.5359315604
 H       -12.6451320585        1.5859355265       -0.1174723985
 H        -6.6360557559       -3.0507054588       -0.6785102645
 H        -6.4735461488       -4.7111482739       -0.0518392837
 H        -6.2379854328       -3.2259652197        0.9513592074
 H        -8.5472974570       -5.7586743499        0.0049276164
 H        -9.6666867689       -5.2940994510        1.5406276232
 H        -7.9206810026       -5.7091967891        1.6710696188
 H       -11.2160641506        0.9090813081        6.6112396955
 H        -9.4366273817        0.5652934912        6.4378555243
 H       -10.3864206429       -0.7331803953        6.8833101841
 H       -11.9832215155       -1.7288358318        5.1794154954
 H       -11.8020206736       -1.2018650019        3.4311725217
 H       -12.6766263533       -0.2844870606        4.4787889156
 H        -5.5671922313        2.9749771972        0.7510918373
 H        -5.4440622912        4.5781817756        0.2079428299
 H        -6.6863455048        3.5488183229       -0.4424248939
 H        -6.6167473519        5.9553245486        3.2828145940
 H        -5.3908102323        5.2866565346        2.1535900479
 H        -5.8480592119        4.2532415687        3.4317301868
 H       -11.2932141200        7.1955870977       -1.7130493753
 H       -10.5353362833        6.9118395744       -3.3603143341
 H       -11.5342559067        8.2141280653       -3.2185221586
 H        -9.7042745305        9.5992339130       -4.1243098193
 H        -7.9868779752        9.0850450760       -3.5283063980
 H        -8.6272286012       10.5297336214       -2.9324961646
 H       -12.7261655181       13.5018529049       -6.7348613609
 H       -13.7449472044       12.1570590694       -6.0551584836
 H       -12.0111185374       11.8521261344       -6.7673954362
 H       -10.0185452287       12.8154293596       -5.2784259431
 H       -10.3953801675       13.7531234274       -3.9028054527
 H       -10.9384373775       14.3574317402       -5.3392770176
 Na       -9.2607286247        0.6764968993        0.8378071749
