117

 C       -13.9529450057       13.9898165211       -4.2274280534
 C       -12.4645550398       13.7146119780       -4.4297933801
 O       -11.6542091115       14.5207524521       -3.9561610703
 C       -11.8787545381       12.4486863701       -5.1503115458
 C       -12.3273407652       11.2777374782       -4.0353620662
 O       -12.9857655682       10.3315858131       -4.3692221900
 C       -11.8541749648       11.2578242605       -2.6113462097
 C       -11.6595734744        9.8220399420       -2.0420966523
 C       -10.1250768001        9.6427032411       -1.5838761795
 O        -9.9107376846        9.8285165400       -0.4104341363
 C        -9.1657621981        8.9583379311       -2.5767804525
 C        -8.0850075530        8.2034151493       -1.7563493906
 O        -6.9259546138        8.5053008235       -1.8644974797
 C        -8.4754266809        7.0060719106       -0.8588479518
 C        -7.6060778954        6.9592354100        0.4505793886
 C        -8.1987410837        5.8122714289        1.4489510030
 O        -9.1963722473        6.0900964950        2.1166919608
 C        -7.4640463717        4.3048066516        1.5747722229
 C        -8.2669455605        3.0875820249        2.1630174174
 O        -7.9792210628        2.0703846158        1.6759579098
 C        -9.1956012716        3.2043529590        3.4396897678
 C        -8.9468529443        2.0417818858        4.3913479227
 C       -10.1656715724        1.0563915623        4.2919978604
 O       -10.7863870297        1.1527669178        3.2165202158
 C       -10.4056178141       -0.1960702803        5.2331163090
 C        -9.3011905317       -1.2274740019        4.7392615257
 O        -8.1452277274       -1.0393559058        5.1518902920
 C        -9.6636408172       -2.4754793636        3.9203392798
 C        -8.4476608619       -3.2214591390        3.3494413069
 C        -8.4063506004       -3.1241817686        1.6795545012
 O        -8.3805191728       -1.9752853925        1.2640992749
 C        -8.3138746629       -4.2672464483        0.5639581497
 C        -9.0736180509       -3.3769017816       -0.6317914447
 O        -8.3440716238       -2.8132919227       -1.4363923689
 C       -10.6436680144       -3.2674107164       -0.6756992196
 C       -11.0048175514       -1.9360295078       -1.4492462405
 C       -11.8209081547       -0.9243139466       -0.5645865327
 O       -11.6787570695       -0.9979245722        0.6499473664
 C       -12.5175303798        0.3629486847       -1.2903763199
 C       -11.3119525698        1.2959619310       -1.6267506652
 O       -10.1780772776        1.1836284219       -1.1404831563
 C       -11.5730332262        2.3971170266       -2.7113880115
 C       -13.3725865617        0.0071314786       -2.5178569448
 C       -13.3198755689        1.1403524060       -0.1516046743
 C        -6.8390360683       -4.6326229889        0.1244446892
 C        -9.0652990443       -5.4542062680        1.1727468266
 C       -10.0229271106        0.1564381005        6.7378382584
 C       -11.8424057647       -0.7227178141        5.0897493369
 C        -6.8256249582        3.7797767927        0.3072855625
 C        -6.5147625641        4.7151796256        2.8642032629
 C        -9.8598013310        7.9040685894       -3.4964150496
 C        -8.5194192228        9.9549570526       -3.4326067033
 C       -12.3553940626       12.0902953606       -6.5835095120
 C       -10.3106132352       12.6587577721       -5.1730549105
 H       -14.2270618484       14.9840979611       -3.8289018039
 H       -14.5393326360       13.2215301845       -3.4847971576
 H       -14.3776091707       13.8916322927       -5.1548132357
 H       -12.4123000038       11.9661531599       -1.8983466727
 H       -10.9234778889       11.8726768725       -2.6409988337
 H       -11.8876411774        9.0990773623       -2.7783920264
 H       -12.3650576554        9.6340933627       -1.2682917235
 H        -8.1720722250        6.1369708463       -1.4916738529
 H        -9.5561947732        6.8594717369       -0.7747938919
 H        -7.6518617527        7.9516971482        0.9847749744
 H        -6.6153947927        6.6661254006        0.2189112845
 H       -10.3048852558        3.2394144171        3.1289866833
 H        -8.9862973822        4.2161190521        3.9082418168
 H        -8.5347962191        2.2659832082        5.3836475451
 H        -8.1151731664        1.4030134352        4.0178566872
 H       -10.4239529849       -2.2817096642        3.0972241212
 H       -10.1459536435       -3.1067035506        4.7155222886
 H        -8.5062062583       -4.2956675378        3.6716532206
 H        -7.4838250725       -2.7243773158        3.6082990214
 H       -11.0242919574       -3.2970464741        0.2816858164
 H       -10.9904789718       -4.1730897054       -1.1889680665
 H       -11.5059678180       -2.0711789579       -2.4089315376
 H        -9.9539371508       -1.4489058495       -1.5055094255
 H       -12.4275371451        3.0828733332       -2.6885064102
 H       -11.5187335391        2.1159318337       -3.7655201078
 H       -10.6106804288        2.9788739637       -2.6157638533
 H       -12.6773946733       -0.1395275733       -3.3903917290
 H       -14.1940263902        0.6440482161       -3.0011065020
 H       -13.9571257873       -0.8941636486       -2.4088174530
 H       -14.1658007751        0.5773023409        0.1186010534
 H       -13.7775897254        2.1043441201       -0.4992565021
 H       -12.7333404080        1.4293705198        0.7760535243
 H        -6.1237277287       -3.8094908402        0.2868607485
 H        -6.8174050486       -4.8930412552       -0.9467788781
 H        -6.5107946309       -5.4831170273        0.6714806076
 H        -8.2328696860       -6.2270530969        1.2963696868
 H        -9.8773837449       -5.8190125341        0.5215414061
 H        -9.3443186592       -5.1817003411        2.2198814392
 H       -10.6983882210        0.9104260956        6.9936812351
 H        -8.9946748969        0.4878772971        6.7776113125
 H       -10.1700632761       -0.6800160518        7.3954884558
 H       -12.1651336987       -1.6931751636        5.5192267597
 H       -12.1279312139       -0.6649544527        4.0454318441
 H       -12.4185413902       -0.0706363328        5.6980710759
 H        -5.9948071807        3.1133965157        0.5575918864
 H        -6.5619739751        4.5485740098       -0.4702823536
 H        -7.4362179855        3.1502652525       -0.2441843924
 H        -7.2022029844        5.2846163664        3.4447642393
 H        -5.7402272883        5.4180881192        2.6049740958
 H        -6.2875474766        3.8317344472        3.4721691480
 H       -10.1975239696        6.9289342355       -2.9785116018
 H        -9.1353517384        7.7287060149       -4.4085754247
 H       -10.7718367820        8.2019267140       -3.9972420749
 H        -9.1973674846       10.2561967814       -4.2676615932
 H        -7.5337207841        9.5287018751       -3.7548058181
 H        -8.4280278127       10.7664823624       -2.7140339603
 H       -12.6940647285       13.0906965062       -6.9874560655
 H       -13.1492728865       11.4054619693       -6.7700484101
 H       -11.5308084878       11.6554287796       -7.2166455543
 H        -9.9274646899       13.6627722593       -5.2755993116
 H        -9.7238943410       12.2036046912       -5.9183749854
 H        -9.8335381788       12.3498501958       -4.2521489492
 Na       -9.3151204291        0.3740937332        1.1157238011
