117

 C       -13.8637917068       14.0331078862       -4.4259320280
 C       -12.3482130033       13.7832027988       -4.5681444852
 O       -11.5582556504       14.6403719924       -4.1953259819
 C       -11.8224279468       12.3843867623       -5.0463886688
 C       -12.2227552801       11.1489131958       -4.2835165139
 O       -13.1085962687       10.3833533904       -4.6237249950
 C       -11.6912257911       11.1716651924       -2.6820518278
 C       -11.6369624541        9.8118047391       -2.0098200262
 C       -10.2117833946        9.4957494019       -1.4266051285
 O        -9.8217797057        9.9116921813       -0.3798650175
 C        -9.0939480607        8.9731134410       -2.6096007780
 C        -8.0105310167        8.2029503722       -1.8264085259
 O        -6.8505583414        8.5196896112       -2.0236289090
 C        -8.4298354759        6.9322195007       -0.8997781239
 C        -7.6874643808        6.7533139108        0.3599218159
 C        -8.2459582230        5.7849501762        1.4061519644
 O        -8.9688870917        6.1123080814        2.3025798066
 C        -7.6140482024        4.3882833913        1.5275554079
 C        -8.3668614564        3.1987633061        2.1543398480
 O        -8.2096562064        2.0973942496        1.7365325761
 C        -9.1476220859        3.3099897214        3.4854428823
 C        -9.0485044508        2.0657384619        4.3266485179
 C       -10.1796935470        1.0190312885        4.2012730374
 O       -10.9703402172        1.0451953426        3.2637530565
 C       -10.2781533659       -0.0469666011        5.2460642792
 C        -9.1137904268       -1.2538738793        4.8076138369
 O        -7.9715893410       -1.1238813644        5.1402460507
 C        -9.6887586728       -2.3196212870        3.8463562445
 C        -8.5221832279       -3.3862693380        3.2365634593
 C        -8.3115189934       -3.0613643865        1.7426544551
 O        -8.4345723705       -1.8857683995        1.3257945659
 C        -8.3720842122       -4.2270672225        0.7350503819
 C        -9.1627074650       -3.5125475064       -0.6366068708
 O        -8.3841153340       -2.9750493152       -1.3795153702
 C       -10.6458906417       -3.2080115124       -0.8216041828
 C       -10.8939021927       -1.7399807646       -1.3577372079
 C       -11.7400811790       -0.8743192420       -0.4345703828
 O       -11.8521896747       -0.9978953935        0.7698053716
 C       -12.5196956426        0.3071350553       -1.2238505573
 C       -11.4205072026        1.3206824984       -1.6912297445
 O       -10.3982220435        1.2067093106       -0.9833958597
 C       -11.5497282352        2.3768558935       -2.7326678953
 C       -13.4773649564       -0.0086654212       -2.3335782073
 C       -13.3354902202        1.0150342443       -0.0886519933
 C        -7.0027752831       -4.5797206067        0.1340963202
 C        -9.0646403233       -5.5446367514        1.2231012889
 C       -10.0363306535        0.1535131859        6.8029863602
 C       -11.7757034987       -0.5372646279        5.1762419665
 C        -6.8118205811        3.9851468617        0.3559789405
 C        -6.5089601260        4.6883219895        2.8022890449
 C        -9.4807449398        7.8804656225       -3.6557682443
 C        -8.4161215877       10.1367435356       -3.5873594091
 C       -12.4669870902       12.0175984264       -6.4539225615
 C       -10.3554073820       12.4668575325       -5.0126613002
 H       -14.0100786387       14.6813607728       -3.5553374276
 H       -14.5316796165       13.2003746866       -4.1714644885
 H       -14.2842598411       14.5889334027       -5.3472426457
 H       -12.3191832737       11.9092088804       -2.1007610402
 H       -10.8312365156       11.7126896321       -2.5745244017
 H       -11.9138810222        8.9913751465       -2.7261368138
 H       -12.3907845447        9.8128563105       -1.2205233389
 H        -8.4881760030        6.1116322855       -1.6244700605
 H        -9.4734464474        7.0699320415       -0.6241570788
 H        -7.9285355594        7.7436112907        0.8596974464
 H        -6.5699112781        6.6007041969        0.3852065016
 H       -10.2449420329        3.4414550028        3.0854667710
 H        -8.9385652551        4.1847012201        4.0837088112
 H        -9.0987755607        2.3506587707        5.3636164762
 H        -8.0309709070        1.6666176635        4.3776562769
 H       -10.2501949037       -1.8832700682        2.9802984774
 H       -10.4360725418       -2.8889415874        4.5201591199
 H        -8.9919144163       -4.3952209767        3.2380909829
 H        -7.4603745764       -3.3644118244        3.7166002142
 H       -11.2164463895       -3.4579144009        0.0166724502
 H       -10.9405183190       -3.8598251577       -1.6232962542
 H       -11.6295165739       -1.8160325437       -2.2168876548
 H        -9.9732379904       -1.2697598843       -1.5840621631
 H       -12.5160190122        3.0086627396       -2.7867595724
 H       -11.4175493393        2.0445014960       -3.7462463346
 H       -10.7087618936        2.9967071449       -2.5963715250
 H       -12.9309441521       -0.1515586050       -3.2811656628
 H       -14.1297354545        0.7275905998       -2.6654113375
 H       -14.1355276895       -0.8599899468       -2.1925596839
 H       -14.1347067088        0.4707136377        0.4353544831
 H       -13.8056200663        1.7788902542       -0.5957712235
 H       -12.7396170338        1.5820983873        0.6216903869
 H        -6.3690339696       -3.7567545893       -0.1266198873
 H        -7.1786892457       -5.0598684153       -0.7448827315
 H        -6.4386612453       -5.2410358467        0.7695581993
 H        -8.2582321507       -6.1134857078        1.6685633183
 H        -9.4109680954       -6.0767219566        0.3122758385
 H        -9.8413969485       -5.3235924193        2.0402252975
 H       -10.8829876582        0.7831516663        7.1430653769
 H        -9.0163427905        0.5330152937        7.0603950513
 H       -10.2006132424       -0.8384413655        7.2457556930
 H       -11.8980510270       -1.3555241151        5.8625830892
 H       -12.0776486094       -0.9560405592        4.1896549208
 H       -12.4940177920        0.2284715835        5.6727030139
 H        -5.9174969280        3.5237825564        0.6849375772
 H        -6.6256026279        4.8199656027       -0.4364062846
 H        -7.2396454978        3.2153601762       -0.2727423053
 H        -6.9785522969        4.8922473396        3.7471205451
 H        -6.1279541027        5.6369903653        2.3649167311
 H        -5.7872622024        3.8205991063        2.9180950895
 H       -10.0078260689        6.9611857889       -3.3949485840
 H        -8.5622178366        7.6474924924       -4.1268543372
 H       -10.0950124748        8.3410388256       -4.4374104266
 H        -9.0579919026       10.2544270623       -4.4348360600
 H        -7.4967099956        9.6283797255       -3.9022269567
 H        -8.2516501859       11.0779857735       -3.0134787461
 H       -12.7649770058       12.9847325639       -6.9503454194
 H       -13.4475852559       11.4799669196       -6.3832731086
 H       -11.8607817040       11.3131426560       -7.1127603378
 H        -9.9300304169       13.4889057051       -5.1142595112
 H        -9.7880413645       11.9781878398       -5.8195840258
 H        -9.7987555206       12.1783660918       -4.1152542448
 Na       -9.3409071200        0.2395837279        1.2130266787
