117

 C       -13.7895441220       14.0440943288       -4.6625419172
 C       -12.2819247922       13.8233225316       -4.5442474954
 O       -11.5278051671       14.7150322246       -4.4720598806
 C       -11.7638516815       12.3812677469       -5.0163827901
 C       -12.3548016656       11.1721518495       -4.2014330357
 O       -13.0789597489       10.2827620195       -4.6006672595
 C       -11.7459079716       11.0147978497       -2.7173412916
 C       -11.6142294353        9.6964222364       -2.0577797182
 C       -10.1431504490        9.5495091855       -1.7421268834
 O        -9.7443700491        9.7872876534       -0.6016119944
 C        -8.9578235507        8.9539726418       -2.6771584032
 C        -7.8007987904        8.1949721241       -1.8413181188
 O        -6.6104714059        8.3472472562       -1.9637389582
 C        -8.4565062980        7.0571364676       -1.0116410496
 C        -7.8333789690        6.8674916856        0.3567316321
 C        -8.2762812957        5.8493727388        1.5162294733
 O        -8.9717091588        6.1898075831        2.4330310314
 C        -7.3779983139        4.4304977765        1.6217914001
 C        -8.4224401799        3.2232061883        2.2219925625
 O        -8.4414831946        2.0798760392        1.5971869039
 C        -9.3051177694        3.4729580164        3.5134905683
 C        -9.1929025960        2.2131355023        4.4320248487
 C       -10.1632806986        1.0159388222        4.1850667358
 O       -10.9103347707        0.9630534095        3.2410245518
 C       -10.1437903940       -0.2574137298        5.3063100007
 C        -9.1167467314       -1.2357797856        4.8054277604
 O        -7.9669651307       -1.1595806402        5.1078507768
 C        -9.7056545546       -2.2091452459        3.8258835694
 C        -8.6908871938       -3.2754002238        3.2520069758
 C        -8.5825839063       -2.9745635197        1.7879791253
 O        -8.3694957983       -1.8396284793        1.4163138919
 C        -8.5519583963       -4.1578918685        0.6608147279
 C        -9.1027948848       -3.4498352142       -0.5544834503
 O        -8.3818289703       -3.1686671344       -1.4503567028
 C       -10.6828680767       -3.2077471653       -0.7910433752
 C       -10.8662061414       -1.7577422436       -1.3121432393
 C       -11.8577722314       -0.8855540125       -0.4296867760
 O       -11.8934591002       -1.0142404234        0.7727143553
 C       -12.5856922143        0.3527887979       -1.0845042019
 C       -11.3475534534        1.3857532246       -1.4989207307
 O       -10.3486889546        1.3771240748       -0.8044308683
 C       -11.5881794398        2.1955392930       -2.6347708484
 C       -13.5352616572       -0.1851523296       -2.1581178676
 C       -13.4575341376        1.0207297064        0.0559336570
 C        -7.0902057577       -4.4987484049        0.2537179532
 C        -9.1991683991       -5.5448562586        1.1083457028
 C        -9.8838939869        0.2912494700        6.7036492627
 C       -11.6413690940       -0.6226214612        5.2104367182
 C        -6.6890546231        3.9857999881        0.2817553748
 C        -6.3487776283        4.6912358767        2.6454048866
 C        -9.4115555490        7.8818352326       -3.7345967115
 C        -8.4075881499       10.2019231874       -3.3149923283
 C       -12.4468158665       12.2226102888       -6.5035697501
 C       -10.2248105725       12.3203262344       -5.2299894686
 H       -14.2517022208       14.1356942805       -3.6491915135
 H       -14.3973331642       13.3091077394       -4.9836949518
 H       -13.9838838095       14.9914121346       -5.2870332869
 H       -12.1698240614       11.6921376308       -2.0791797011
 H       -10.7806952141       11.5477716254       -2.7220304348
 H       -12.1207175305        8.7763115148       -2.4983985404
 H       -12.0115939433        9.8657285630       -1.0084001711
 H        -8.2410545316        6.2057960457       -1.6545169851
 H        -9.5448319394        7.1195782630       -1.0830509263
 H        -7.6930930891        7.8193688030        0.8812886972
 H        -6.7458384397        6.4938552902        0.1519904821
 H       -10.2519341422        3.7741483953        3.1787429913
 H        -8.8457407841        4.3274511528        4.0347793783
 H        -9.1829332171        2.4077257261        5.4970232403
 H        -8.1470713919        1.9038870949        4.4152150222
 H       -10.0652989729       -1.6565112702        2.9610758224
 H       -10.5664601289       -2.7024920629        4.2895102073
 H        -9.0125054150       -4.2821548990        3.4830453086
 H        -7.6441379655       -3.0139188068        3.5364158708
 H       -11.3462774284       -3.3847056729        0.1521931922
 H       -10.9598026337       -3.9080047090       -1.5417375006
 H       -11.1510526826       -1.6779712944       -2.3601697666
 H        -9.9670298556       -1.2969745889       -1.0988528413
 H       -12.6124643632        2.4468351652       -2.6422611232
 H       -11.5285063012        1.5825962699       -3.5395049999
 H       -10.9613069237        3.0462455653       -2.8227527489
 H       -13.1680726628       -0.6169350023       -3.0157727719
 H       -14.0503615747        0.5642975123       -2.7061957754
 H       -14.2837847309       -0.8647485457       -1.7618393977
 H       -14.1214322083        0.4026988041        0.6921411526
 H       -14.0314453457        1.8291692997       -0.3753186586
 H       -12.8348739136        1.5593029392        0.6537807982
 H        -6.6258931072       -3.7720978394       -0.3776060567
 H        -6.9920853811       -5.3857758564       -0.3980217262
 H        -6.4709208172       -4.6227091136        1.1253699252
 H        -8.9310557930       -5.7001783425        2.1192150586
 H        -8.7356869730       -6.3597251310        0.5123911601
 H       -10.2425863095       -5.4261447299        1.0525371197
 H       -10.7241040961        1.0366291328        6.9480702696
 H        -8.8642802564        0.7164758981        6.6600174280
 H        -9.9202890185       -0.5549648847        7.4428733112
 H       -11.8899483981       -1.3076227915        6.0568184043
 H       -11.8767317016       -1.2828277266        4.3582612364
 H       -12.3062417679        0.2813871875        5.4141630457
 H        -5.7246914265        3.4483000851        0.3201375859
 H        -6.6264665839        4.7209309434       -0.3860718582
 H        -7.3998791926        3.2995557157       -0.3434938770
 H        -6.6592191831        4.6143449518        3.7572062821
 H        -6.0525215278        5.7147881283        2.3331633507
 H        -5.5719720196        3.9505623802        2.4751389144
 H       -10.0965880965        7.1799338224       -3.3878900022
 H        -8.5809499192        7.2441010121       -3.9816323074
 H        -9.8729204774        8.4004563937       -4.5784996282
 H        -9.0265811671       10.3031113471       -4.1761209985
 H        -7.4775514500        9.8256187037       -3.6672529357
 H        -8.3937240627       11.0749856500       -2.6522069780
 H       -12.3047979095       13.0626722077       -7.1774642868
 H       -13.6022232352       12.1282781064       -6.4174521147
 H       -12.2348513106       11.2471873442       -6.9419322687
 H        -9.8434654545       13.1714859042       -5.8324527931
 H        -9.7743754729       11.4668560782       -5.8221382158
 H        -9.5168720194       12.4714523890       -4.4052416411
 Na       -9.5591966088        0.0881644160        1.2956271362
