117

 C       -13.7290764526       14.1271031155       -4.6849309247
 C       -12.2798311307       13.8346118023       -4.8236381325
 O       -11.4346259073       14.7114224314       -4.6299249917
 C       -11.8295477785       12.3422551493       -5.2038735892
 C       -12.2610799079       11.1142201591       -4.1174150768
 O       -13.0265423011       10.2686901530       -4.5619587977
 C       -11.7723499527       11.1151011526       -2.6774648380
 C       -11.5177144256        9.5727509837       -2.2589979964
 C        -9.9950801431        9.3035234526       -1.7713101317
 O        -9.6238219949        9.7117255101       -0.6912959036
 C        -8.7634513677        8.9106641060       -2.8484493969
 C        -7.7951762905        8.0483854147       -1.8405963613
 O        -6.6178467196        8.2273940251       -1.8633034743
 C        -8.4346188753        6.9110763161       -0.9162306228
 C        -7.7632372774        7.0960410512        0.5440049522
 C        -8.1529563141        5.8368531525        1.5052014741
 O        -8.9760184522        6.1636224866        2.3831122725
 C        -7.3977945170        4.4472795464        1.6275215302
 C        -8.4243243469        3.3366676217        2.1808669795
 O        -8.6057207867        2.2829165199        1.4745210417
 C        -9.2453323082        3.4407289047        3.3833179328
 C        -9.2595260361        2.3253223858        4.5395975249
 C       -10.1158511557        1.1093648045        4.2343335520
 O       -10.6782777198        0.8849194371        3.1595422400
 C       -10.1817643690       -0.0183994778        5.3196148692
 C        -9.2021087048       -1.1630968661        4.7511698162
 O        -8.0085526688       -1.2234653995        5.0757891430
 C        -9.8086576640       -2.2949495336        3.8567618136
 C        -8.8039455852       -3.1814355820        3.2681134088
 C        -8.5764703015       -3.0013403981        1.7617376955
 O        -8.3700385276       -1.9045268689        1.3288236691
 C        -8.5958992496       -4.1087289876        0.6573157360
 C        -9.1634193188       -3.5653418509       -0.7569797713
 O        -8.4736424934       -3.2077639106       -1.7001509573
 C       -10.6886563579       -3.1295732346       -0.6770680538
 C       -10.9007825813       -1.7423585890       -1.2211255927
 C       -11.8591213371       -0.9241299131       -0.3106711725
 O       -11.8279280501       -1.1689426296        0.8788650369
 C       -12.6014153894        0.3294146478       -0.8449003169
 C       -11.3952870741        1.2958186705       -1.2335088695
 O       -10.3960175496        1.5145284532       -0.6271655911
 C       -11.6818944009        2.0492794338       -2.6464614748
 C       -13.4871029193       -0.2554282624       -2.0306969441
 C       -13.4861094416        1.0189882280        0.1523151997
 C        -7.0477111776       -4.4029339826        0.6280090244
 C        -9.4585199639       -5.3430406650        1.0105205494
 C        -9.6327141321        0.5338810167        6.6535904091
 C       -11.6419649750       -0.7560532858        5.3546057634
 C        -6.8805650889        3.8259060989        0.2959491952
 C        -6.1341876785        4.7401665496        2.6304479931
 C        -9.4229732441        7.9360954432       -3.8386527081
 C        -8.1625915111       10.3268003693       -3.2008749969
 C       -12.3319830055       12.3176190375       -6.6353329322
 C       -10.3495366399       12.2537954501       -5.4851100501
 H       -14.2118963661       13.7651205871       -3.7690863161
 H       -14.4124781491       13.4619800369       -5.3787862596
 H       -13.9339213349       15.0516431244       -4.9346367833
 H       -12.5877778407       11.6423006478       -2.1928609753
 H       -10.9703683617       11.8926984500       -2.4620540580
 H       -11.8177027624        9.0039385451       -3.1483572032
 H       -12.1482771209        9.2221133855       -1.3879623718
 H        -8.3338340328        5.9320950967       -1.4010314955
 H        -9.5270143405        7.0724605416       -0.9117369218
 H        -8.2266326925        7.9506016372        1.0563159387
 H        -6.6961266798        7.3488951003        0.5139196963
 H       -10.1961945334        3.5275573221        2.9651431225
 H        -9.0432161786        4.4081665054        3.8720731206
 H        -9.6892204187        2.7489998411        5.4756659396
 H        -8.3000201280        2.1005248351        5.0048697999
 H       -10.2940808272       -1.8041388488        3.0418078452
 H       -10.4831252502       -2.8763321646        4.3800807479
 H        -9.0650518105       -4.1728689587        3.5507000320
 H        -7.8949453672       -2.8732025726        3.6754560000
 H       -10.9017048720       -3.1314323634        0.4484747499
 H       -11.4656944400       -3.7904436878       -1.1857499950
 H       -11.2824222902       -1.7830170402       -2.1819478570
 H        -9.9286093481       -1.1662705364       -1.2017121566
 H       -12.6519027264        2.4095211110       -2.7721149940
 H       -11.5630056173        1.3974718303       -3.5081118835
 H       -11.0179333607        2.9068620826       -2.8617626162
 H       -13.2028587364       -0.9027499062       -2.8077903341
 H       -13.7681735479        0.5586332755       -2.7596951013
 H       -14.3749244762       -0.7351045472       -1.6827301245
 H       -14.0956519324        0.3242413710        0.6386172756
 H       -14.0700345024        1.9336569711       -0.2084027214
 H       -12.8614873238        1.4870175235        0.9430525526
 H        -6.5698562983       -3.6695637024       -0.0986039200
 H        -6.6426366118       -5.3693724626        0.1370657433
 H        -6.5881979506       -4.2331588521        1.6108545764
 H        -9.9835018830       -5.3632126246        1.9467798456
 H        -8.8299342115       -6.1948107969        0.9636652832
 H       -10.1492949076       -5.3442736986        0.2628328253
 H       -10.1101290577        1.3990968175        7.1192361406
 H        -8.5724785548        0.6415641608        6.4148123805
 H        -9.6719415455       -0.3582240115        7.3074270420
 H       -11.5538062014       -1.6609107803        6.1003764220
 H       -11.8000028959       -1.3509081709        4.4835641603
 H       -12.4745092565       -0.1625455874        5.6307871819
 H        -5.9848437962        3.1757531021        0.4176456668
 H        -6.5176002230        4.7055616310       -0.2808121887
 H        -7.5162705582        3.3562724752       -0.4192002523
 H        -6.5233805046        4.6976874204        3.6682996791
 H        -5.6395598718        5.6608045046        2.3450436149
 H        -5.5342119838        3.8519669421        2.4941777498
 H       -10.1382990585        7.3261693672       -3.2687941164
 H        -8.7723168132        6.9984393958       -4.0832623224
 H        -9.9401254335        8.4643843763       -4.6107293352
 H        -8.7819289194       10.7077099813       -4.0205329519
 H        -7.1659931771       10.1131849922       -3.5369969115
 H        -8.2838298264       10.9036408693       -2.3010490705
 H       -11.7682208020       12.9667383753       -7.2876212785
 H       -13.3271086554       12.5945960949       -6.8233126646
 H       -12.3037861792       11.3092012321       -7.0064132186
 H        -9.9007245388       12.6442309072       -6.3630083125
 H        -9.8000321961       11.3400344457       -5.4023020037
 H        -9.8505587432       12.9234767775       -4.7948147857
 Na       -9.8846551517        0.0339920552        1.3485185241
