117

 C       -13.5563176802        1.2447109604      -10.3719319976
 C       -12.8943076520       -0.1017169427       -9.8930461821
 O       -13.5581592086       -1.0357278810       -9.5042527115
 C       -11.3278006637       -0.4146952075      -10.0430978381
 C       -10.7827382874       -0.6651782171       -8.6490086358
 O       -10.2697773712       -1.6949174987       -8.3159036454
 C       -10.8083830118        0.5733574991       -7.7804142500
 C       -10.4141445343        0.2896135991       -6.2969645322
 C       -10.8775345237        1.3031946088       -5.1799937236
 O       -11.4978429706        2.3310173180       -5.4446446719
 C       -10.7102818461        1.0438236396       -3.6333412175
 C       -10.3504422622        2.4025669990       -2.8883661100
 O        -9.1728454671        2.6410360442       -2.6942349024
 C       -11.4902924341        3.3651172516       -2.5112111970
 C       -11.0088989976        4.8289364685       -2.3895316827
 C       -10.2281362518        5.0885377378       -1.0522873630
 O        -9.8192132966        4.2078590813       -0.2882655086
 C        -9.6622414340        6.4778688677       -0.7317916328
 C       -10.3775842833        7.0442610754        0.5170576816
 O       -10.6890079536        6.2782864802        1.3947177733
 C       -10.6440699624        8.5462525767        0.6833235530
 C       -11.7182932211        8.7832385526        1.7460880316
 C       -11.0415290172        8.5909220186        3.1198536445
 O       -10.0546612283        9.2696142423        3.4021650587
 C       -11.8282266276        7.5648693555        4.1730177819
 C       -10.7165418317        6.5786735326        4.7188473635
 O       -10.3900122249        5.4883214749        4.2212748286
 C        -9.8819020808        7.0521822738        5.9000667755
 C        -8.5909047528        6.2082776481        5.9596379246
 C        -8.6656069654        4.9809479555        6.8837185132
 O        -9.6713320929        4.6677305021        7.4709132527
 C        -7.3456489064        4.0839672852        7.0943365273
 C        -7.1880417658        2.9913602930        6.0302428682
 O        -6.2688046751        3.0185576996        5.2755987189
 C        -8.2166947363        1.8375183596        5.9039740242
 C        -8.2377008187        1.0584606106        4.5812310528
 C        -8.3463946853        1.9328768664        3.4028206676
 O        -9.4503017215        2.3867955372        3.1107993238
 C        -7.0913158572        2.1455203896        2.4131700935
 C        -6.5443367280        3.6152423104        2.6677155292
 O        -7.3192314044        4.5400591713        2.5850959117
 C        -5.0636833020        4.0348223681        2.9101850674
 C        -5.9712161692        1.0666270851        2.7557594452
 C        -7.4437178588        2.1894481265        0.9208914769
 C        -6.1203066976        4.9652048072        7.2019255251
 C        -7.5830314484        3.3789631954        8.4120200915
 C       -12.5509364561        8.5113135389        5.2215113882
 C       -12.9480012317        6.6823362733        3.5646284359
 C        -8.0968482509        6.2061282079       -0.5446137956
 C        -9.6152072118        7.3635959623       -2.0687057328
 C       -12.0561439458        0.5119865884       -3.2419066286
 C        -9.5354342334       -0.0615770035       -3.4462728276
 C       -11.0898362358       -1.6358442012      -10.9917028330
 C       -10.5846471599        0.7908982134      -10.6379054011
 H       -14.2371563490        1.5029032812       -9.4731971925
 H       -14.1609835458        0.8312338921      -11.1622332528
 H       -12.8976712612        2.0790791497      -10.5693688015
 H       -11.7306910312        1.1733037393       -7.7938727671
 H       -10.1271898086        1.3025771825       -8.1058911728
 H        -9.3247236435        0.2311931984       -6.4154424199
 H       -10.7690242070       -0.6704324037       -6.0603667563
 H       -11.8209385691        3.0006057460       -1.5649253998
 H       -12.3226157072        3.2149489267       -3.2179033890
 H       -11.8558459530        5.5427456849       -2.4340620682
 H       -10.2596695768        5.0513318402       -3.2483287743
 H       -11.0769534021        8.9118230004       -0.3060371697
 H        -9.7581173955        9.0785784243        0.8572256702
 H       -12.6186117774        8.2239116361        1.5984720531
 H       -11.9653052304        9.8628589147        1.7427895630
 H       -10.3205996973        7.0295568232        6.8775220924
 H        -9.4921822999        8.0254135763        5.6178186020
 H        -7.7702220089        6.8440876269        6.3345163851
 H        -8.3953387888        5.8354271934        4.9778894461
 H        -9.2407522968        2.1149350168        6.2291949416
 H        -7.9236139738        1.1782940082        6.7548333230
 H        -9.1603779658        0.5444151361        4.4396097498
 H        -7.4645956972        0.3600092600        4.5373637822
 H        -4.3675160059        3.8456725125        2.0723111846
 H        -4.8433423796        3.5698465399        3.8015380085
 H        -5.1985906426        5.0837451033        3.0854997184
 H        -6.1077970697        0.1601542281        2.3198809052
 H        -5.8211828139        1.0185442702        3.7918727167
 H        -4.9835047775        1.4001943182        2.3375943095
 H        -8.4385614398        2.4615234072        0.8395397940
 H        -7.4312534464        1.1204662875        0.4672150062
 H        -6.7241441014        2.7660510934        0.3796793363
 H        -5.6618390812        5.2045047323        6.1690725021
 H        -5.2781379749        4.6481549753        7.8659157898
 H        -6.4707777061        5.8740057383        7.6525351921
 H        -6.8975665239        2.5732224419        8.5577638371
 H        -8.5941806760        2.9744941184        8.6519125223
 H        -7.4270083918        4.0136969304        9.2415700705
 H       -13.2581464020        9.1902169610        4.7105703678
 H       -11.8153150897        9.2315504161        5.7369516997
 H       -13.1272922915        8.0086827993        6.0087298834
 H       -12.7677596432        5.9326672286        2.7440348721
 H       -13.7215144965        7.3227507982        3.1939547815
 H       -13.3493019758        6.0375922705        4.3228586786
 H        -7.3494026878        6.9830353131       -0.5393616372
 H        -7.8186339972        5.4686574490       -1.2785290018
 H        -8.0674030400        5.7675643706        0.4348928325
 H        -9.0470885302        6.9097058616       -2.8727856029
 H        -8.9906925142        8.1887378642       -1.8365687446
 H       -10.5850475093        7.7036104209       -2.3977361171
 H       -12.2295915055       -0.4954579661       -3.6546972175
 H       -12.8921540485        1.1709278383       -3.4684572803
 H       -12.0327024824        0.3050878218       -2.2087442453
 H        -9.3838513670       -0.8394399925       -4.1923357408
 H        -9.7261595093       -0.4293127819       -2.4280471102
 H        -8.5992488338        0.5837504711       -3.4590211299
 H       -10.7155878570       -2.4447491463      -10.4294003276
 H       -10.2165219196       -1.3897435930      -11.6581632756
 H       -12.0356021032       -1.9060374184      -11.5168293385
 H       -10.8555282083        1.7702711421      -10.3015180192
 H       -10.7307430523        0.9240038987      -11.6958260716
 H        -9.5282837421        0.7541379479      -10.6726714418
 Na       -9.8006905251        4.5263643045        2.1646804702
