117

 C       -13.4825646761       13.7615206477       -4.7537636993
 C       -12.0241789090       13.5722827347       -5.1645171078
 O       -11.1869820300       14.4021561573       -5.1676545680
 C       -11.6418346222       12.2106356071       -5.8006012086
 C       -12.0529986843       11.1717476779       -4.6302233921
 O       -13.1647198678       10.7877955050       -4.4760859035
 C       -10.8738973654       10.9736321587       -3.5130208836
 C       -10.7569949418        9.4737276330       -3.0676816249
 C        -9.5681731134        9.4985804429       -2.0172727049
 O        -9.5825733590        9.7751613415       -0.8216630361
 C        -8.4211981460        8.8335244296       -2.6767757332
 C        -7.7259884194        7.9019902101       -1.6952980190
 O        -6.5317525024        7.6550669679       -1.8925426065
 C        -8.4823938293        7.0864997790       -0.6005066042
 C        -7.5878900921        6.7999197830        0.6474331998
 C        -8.3144615280        5.7968041114        1.5148680659
 O        -9.3564705303        6.0149702877        2.0694413753
 C        -7.6045749392        4.4097608037        1.6282306022
 C        -8.4535800549        3.2789719862        2.2216604263
 O        -8.4545115665        2.1986241232        1.8045733463
 C        -9.3538206910        3.6289355014        3.4042030875
 C        -8.8267479563        2.5649641394        4.4111805464
 C        -9.9272423442        1.4830461588        4.5531381597
 O       -10.6814686849        1.4273845743        3.5884808005
 C        -9.9233309806        0.2923640333        5.6801998789
 C        -9.1040781311       -0.9143149444        4.8309544842
 O        -7.9402509360       -1.0505820749        4.8363082112
 C        -9.9457025719       -1.6464087098        3.7746908135
 C        -9.2575810589       -2.9102665673        3.2676492565
 C        -9.1790537433       -2.9475461210        1.6695594483
 O        -9.3787109111       -1.8179245224        1.1511714178
 C        -8.8028126646       -4.1267153161        0.8067014826
 C        -9.4014611666       -3.7656788410       -0.7088933251
 O        -8.6631934576       -3.7602823238       -1.6026531156
 C       -11.0027368229       -3.3591758271       -1.0083881885
 C       -11.1901089330       -1.8752194313       -1.2796270264
 C       -12.0802475269       -1.2008243714       -0.2190750857
 O       -11.9505132190       -1.6371400200        0.9147737207
 C       -12.9563970819        0.1159463496       -0.5676747594
 C       -11.9121318491        1.2381249003       -1.0989536781
 O       -11.0109736765        1.7324864337       -0.3744986897
 C       -11.9741482863        1.7383401318       -2.4985860639
 C       -14.0693711829       -0.1444656634       -1.5790911441
 C       -13.5134398525        0.7069327086        0.7389896354
 C        -7.3395316277       -3.9198355559        0.7325817759
 C        -9.2093504205       -5.4710021944        1.3574114698
 C        -8.9629958601        0.7825413829        6.7919671672
 C       -11.2631250041       -0.1868860211        6.3388384206
 C        -7.0100160037        3.7871378912        0.3318261281
 C        -6.5579915558        4.5842599682        2.7220122262
 C        -8.4694569529        7.8783566423       -3.9599986022
 C        -7.5031907763       10.1712997520       -3.0649201530
 C       -12.5930612951       12.2012291775       -7.0720007244
 C       -10.1187998153       12.0725027336       -6.3329412575
 H       -14.0429918569       12.8323417979       -4.6990267971
 H       -14.0619714637       14.3619781441       -5.4133485376
 H       -13.5622646672       14.5330428098       -3.8463971359
 H       -11.3976811452       11.5260872846       -2.5817048003
 H        -9.9874834198       11.5380296742       -3.8553342183
 H       -10.3016674641        8.8814265633       -3.8592539263
 H       -11.7035313133        9.0429434215       -2.7395033516
 H        -8.9355928874        6.2203518162       -1.1307795424
 H        -9.2846900654        7.6855558581       -0.1567844032
 H        -7.2890091986        7.6893098519        1.2110198946
 H        -6.6135322583        6.5138867887        0.3875206509
 H       -10.4601759518        3.3967012940        3.2954211340
 H        -9.2725226031        4.6095583707        3.7350396078
 H        -8.4582479268        3.0333275753        5.3415518213
 H        -7.9508715186        2.0072103120        4.0402834627
 H       -10.0900771581       -1.0997900163        2.9195828031
 H       -10.8776268107       -1.8579180504        4.2120335200
 H        -9.8421434704       -3.6957297155        3.7053542337
 H        -8.3257134967       -3.0048561764        3.7129197045
 H       -11.6268254632       -3.6869743791       -0.1590733661
 H       -11.2735318276       -3.9619193224       -1.9682878740
 H       -11.3630125740       -1.5541196915       -2.3302624175
 H       -10.2372663641       -1.3463419766       -1.0835142512
 H       -12.8630296913        2.4204414130       -2.7050219616
 H       -11.9282118972        0.9548820696       -3.2100989359
 H       -11.2259576663        2.4344636721       -2.6838201212
 H       -13.6431251083       -0.5182177005       -2.5701726112
 H       -14.6027417353        0.7628320324       -1.7899405306
 H       -14.8741295320       -0.9193857307       -1.4944793517
 H       -13.9354561302       -0.1452327663        1.4145247344
 H       -14.2584896475        1.4433945784        0.5563682066
 H       -12.7288541964        1.1070044761        1.4078008612
 H        -7.0440994574       -2.8702437247        0.9832854124
 H        -6.8661107866       -4.1192578828       -0.2293661213
 H        -6.7220395911       -4.4828634213        1.5531105750
 H       -10.0781314419       -5.4490600116        1.9054982694
 H        -8.4429906716       -5.7668491957        2.0234803968
 H        -9.2146559837       -6.2627076346        0.6030643022
 H        -9.4041717535        1.6821329975        7.2661820429
 H        -8.0044531896        1.1164796543        6.2971209344
 H        -8.7472059744       -0.0413434745        7.5110479740
 H       -10.9525336244       -0.7640545427        7.1658980089
 H       -11.9156016463       -0.7956758784        5.6882488264
 H       -11.8147150408        0.7702612563        6.5076134461
 H        -6.2736929102        3.0243083007        0.4796493925
 H        -6.5223498336        4.4748644374       -0.3297407758
 H        -7.9016697474        3.2677161140       -0.1827469432
 H        -7.1626575313        4.7136030896        3.5880562477
 H        -5.8035407539        5.3925472316        2.5626519260
 H        -5.9228737099        3.6582740971        2.7059700067
 H        -9.0454911177        6.8859545242       -3.8208543589
 H        -7.4443103141        7.6567162872       -3.9084887448
 H        -8.6735657919        8.4252034266       -4.9550708009
 H        -7.9202076522       10.6266511298       -3.9375583613
 H        -6.5075666167        9.7755892157       -3.1627363489
 H        -7.6200285534       10.7547367801       -2.1663628480
 H       -12.3349591506       12.8786036523       -7.8384574772
 H       -13.6275264391       12.3599527524       -6.7964975882
 H       -12.5650755757       11.2742157636       -7.6127778620
 H        -9.7926051813       13.0738413842       -6.6879005423
 H        -9.8709179355       11.3800374324       -7.1158775611
 H        -9.3392563648       11.7882580909       -5.6129618467
 Na       -9.9257657361        0.4109351480        1.5668411421
