117

 C       -13.1832729521       14.1630354068       -5.2853630969
 C       -11.8370722815       13.6512528036       -5.6803102157
 O       -10.7268074200       14.1837012987       -5.4857172840
 C       -11.8177163854       12.2026477560       -6.3446341705
 C       -11.6415777462       11.1599984379       -5.1613349150
 O       -12.5446618065       10.4369043109       -4.7062796512
 C       -10.2078296578       10.7894638222       -4.7263740830
 C       -10.4222126805        9.7869393370       -3.5431666671
 C        -9.2800249213        9.5988529287       -2.5301375359
 O        -9.5082764352       10.0428267774       -1.4137120510
 C        -7.8045001813        8.9424766542       -2.7774484835
 C        -7.4391681068        7.9202699291       -1.5354120007
 O        -6.3214579337        7.6343569902       -1.3515077274
 C        -8.3767903726        7.2995397410       -0.5129968370
 C        -7.5652898044        6.5708851519        0.5040191539
 C        -8.1769085960        5.4942367166        1.2435339638
 O        -9.3913549353        5.4236992461        1.2680234675
 C        -7.3199887668        4.2483493166        1.7990965661
 C        -8.4355083958        3.3574621730        2.4843344475
 O        -8.7890415117        2.2885531927        1.9581317388
 C        -9.3045244886        3.7858539588        3.7356738189
 C        -9.1201130830        2.8095331282        5.0125173134
 C        -9.8456252627        1.4617021107        4.9273093363
 O       -10.7739612409        1.3418008821        4.0985663519
 C        -9.5723946401        0.3175428652        5.8422618104
 C        -9.3249249907       -0.8531797487        4.9018722129
 O        -8.1831886694       -1.3197054816        4.7424542347
 C       -10.3365767068       -1.8167069840        4.3120957181
 C        -9.5475500285       -2.6962353718        3.3587415589
 C        -9.4046996095       -2.2377403884        1.8970560744
 O        -9.4042256314       -1.0753678090        1.5491077631
 C        -8.9452991341       -3.4973881795        0.8459075960
 C        -9.6667138945       -3.5866321840       -0.6152123796
 O        -8.9913052123       -3.7619134211       -1.6447997919
 C       -11.2123269314       -3.7377686076       -0.8258741402
 C       -12.0445218944       -2.3919519909       -1.0927926434
 C       -12.5417024724       -1.5059994865        0.1174022672
 O       -12.4742146120       -1.6860208743        1.2866261595
 C       -13.2568975979       -0.2002741857       -0.4444324298
 C       -12.1394423672        0.8287095886       -0.9845297913
 O       -11.0900061596        0.9056449341       -0.3542545641
 C       -12.5556655824        1.5702214213       -2.2002823031
 C       -14.3850352377       -0.4256109810       -1.4404368544
 C       -13.8025272230        0.5486575906        0.8353765241
 C        -7.4742007487       -3.5331519142        0.5988110114
 C        -9.1617539177       -4.9476848096        1.5373674765
 C        -8.2501998594        0.5110180640        6.6847369643
 C       -10.7545361814       -0.0638015656        6.8437503634
 C        -6.6726780430        3.6388243004        0.5397744581
 C        -6.2094039143        4.5800386977        2.8844398820
 C        -7.8012199922        7.9144129146       -4.1207510506
 C        -6.6933815882       10.1396278793       -3.0633329345
 C       -13.1651154888       12.1505835791       -7.1971833743
 C       -10.5023424909       12.1741242633       -7.2835745473
 H       -14.0618407401       13.7213392903       -5.5293789464
 H       -13.3563845766       15.2415782477       -5.5381917191
 H       -13.2473718758       14.0671146274       -4.2186672205
 H        -9.8515286538       11.7899316093       -4.3766920321
 H        -9.6485747259       10.2643373283       -5.6589980077
 H       -10.6428214920        8.8130324530       -3.9718432764
 H       -11.3016305763        9.9108495396       -2.9436426756
 H        -8.9382140974        6.4817297182       -1.0007648461
 H        -9.1822120793        7.9137841621       -0.0949397008
 H        -7.2655468096        7.2307376426        1.2824188330
 H        -6.6102237508        6.2012140373        0.0439972956
 H       -10.2817594571        3.5810035208        3.2864765655
 H        -9.4264055869        4.9370658134        4.0169577047
 H        -9.4573294742        3.3243134635        5.9103468151
 H        -8.0158896411        2.6906567499        5.0256503717
 H       -11.1392530364       -1.3312385538        3.8931944546
 H       -10.6766115905       -2.4103708577        5.1674149681
 H        -9.9047242373       -3.6563501734        3.3689591126
 H        -8.6617442898       -2.9267149441        3.8453741972
 H       -11.5998059317       -4.3171012037        0.1122115980
 H       -11.3438714234       -4.4421185254       -1.6039530135
 H       -12.9579576739       -2.5455145486       -1.7664319853
 H       -11.4911111142       -1.6772112977       -1.7242789179
 H       -13.3722275967        2.1538884373       -2.0644518695
 H       -12.6502531056        0.9146710701       -3.0512497150
 H       -11.7932518412        2.3401726317       -2.4526546955
 H       -13.9178419606       -0.4307995587       -2.4131684303
 H       -15.2864573140        0.2958956510       -1.3010495234
 H       -14.9644697422       -1.3588283456       -1.2511838630
 H       -14.6359125495        0.0059720600        1.2171404285
 H       -14.2488963588        1.5837237655        0.5493410282
 H       -12.9789435117        0.6185086193        1.5664975156
 H        -7.1114292994       -2.7903644570       -0.1748710273
 H        -7.1772836034       -4.5917705955        0.2451573923
 H        -6.7583435558       -3.4803841442        1.4036969992
 H       -10.0986982334       -5.0528592600        2.0232523531
 H        -8.3781466017       -5.2016870376        2.2203506033
 H        -9.1714732298       -5.7116424324        0.8504126347
 H        -8.3649018482        1.2867101844        7.5190371496
 H        -7.4085387750        0.7547247766        6.0104531880
 H        -7.9086483678       -0.4307050062        7.1852805824
 H       -10.3059467837       -0.5553041529        7.7128693899
 H       -11.5911237940       -0.4978828996        6.3120899475
 H       -11.0115583949        0.9143637114        7.2129853654
 H        -6.3950213421        2.6552553243        0.9407893979
 H        -5.8384637419        4.2849482247        0.0772843019
 H        -7.3442004950        3.3043197949       -0.1562655275
 H        -6.6006882359        5.0602431251        3.8712011116
 H        -5.4973688627        5.3329737733        2.5183066709
 H        -5.7132700685        3.6473678358        3.0156333107
 H        -8.7444182367        7.4097482728       -4.0912384273
 H        -6.8326992509        7.2856378916       -3.9637807376
 H        -7.5144643786        8.3835727419       -5.0410491491
 H        -7.2869829689       10.6379053114       -3.7621853081
 H        -5.9549054320        9.5424985846       -3.5327179694
 H        -6.3720530081       10.7387328366       -2.2234007012
 H       -13.4375987944       12.9937872672       -7.8471514007
 H       -13.9875718240       12.0219409153       -6.4920263529
 H       -13.2926287166       11.2346712711       -7.7847666145
 H        -9.5439632006       11.7750387945       -6.9320092983
 H       -10.3044750373       13.2408850087       -7.6147516226
 H       -10.7800489528       11.6051406150       -8.2137697378
 Na      -10.4069852634        1.0623603275        1.9477595164
