117

 C       -12.7462648146       14.2906986662       -5.4688337288
 C       -11.5720258007       13.5471265899       -5.9856983963
 O       -10.4502959325       13.9125886123       -5.6207141571
 C       -11.7656825435       12.2400517319       -6.6536011631
 C       -11.4389633045       10.9403130495       -5.6526149418
 O       -12.3648237802       10.2152170005       -5.2758096003
 C        -9.9031471386       10.8161624492       -4.9612109781
 C       -10.0253770576        9.7915478862       -3.6742393171
 C        -8.9261851656        9.6957302353       -2.6322093732
 O        -9.2034275816       10.0314404051       -1.4751034494
 C        -7.5909052556        8.9641002921       -2.8088863756
 C        -7.0114065583        8.0279020081       -1.5272106375
 O        -5.8331338197        7.9581137294       -1.3504739939
 C        -8.0245405759        7.4868292578       -0.5609102282
 C        -7.4262926658        6.3576680993        0.4207555933
 C        -8.3183237466        5.3053618063        0.9881123964
 O        -9.5272694194        5.2992411416        0.7796957895
 C        -7.5621835291        4.1502350326        1.9193677483
 C        -8.6253032949        3.2851470768        2.5270852950
 O        -8.9406302101        2.2202437209        2.0573864108
 C        -9.3363257687        3.8511164612        3.8643264929
 C        -8.7577838719        2.7481824372        4.9771139699
 C        -9.6261078047        1.5519765159        4.9047446668
 O       -10.7264717950        1.5826170961        4.3111773465
 C        -9.2983015946        0.3439253082        5.7887830750
 C        -9.0309518753       -0.9620595616        4.8445627540
 O        -7.8989194264       -1.4711367076        4.6545218145
 C       -10.4320554565       -1.3895183457        4.2975897549
 C       -10.4157128649       -2.5844288183        3.3415077625
 C        -9.5784981476       -2.3871942040        2.1277848958
 O        -9.3492435506       -1.1603916574        1.9456619716
 C        -8.9121199139       -3.4909324438        0.9867781925
 C        -9.8766763320       -3.2747463494       -0.2960374052
 O        -9.5734188642       -2.8540319831       -1.4075219592
 C       -11.3908926449       -3.6695282661       -0.0593915037
 C       -12.3021656339       -2.6440530409       -0.7605221754
 C       -12.9115239520       -1.5558080496        0.2035670403
 O       -12.6636516118       -1.6875013507        1.3230901684
 C       -13.6192913541       -0.2728418657       -0.2443177791
 C       -12.4111669835        0.6345168114       -0.8444395190
 O       -11.3951306634        0.7156803225       -0.1374295501
 C       -12.5013189857        1.4098633698       -2.1009975260
 C       -14.7027019466       -0.5809754563       -1.3162859805
 C       -14.2055422870        0.4057579508        0.9862025371
 C        -7.5914357617       -2.9439212022        0.6518542996
 C        -8.8446872903       -5.0200740305        1.2640618088
 C        -8.0922023970        0.6134580241        6.7647470963
 C       -10.4524335766        0.2248586821        6.8293693541
 C        -6.5145209397        3.2737427931        0.9696538472
 C        -6.8042585403        5.0254889016        2.8805562785
 C        -7.7161669540        7.8699147462       -4.0143767003
 C        -6.5307488623       10.1978868480       -3.1572251726
 C       -13.3056444667       11.9883215482       -7.1454206929
 C       -10.9001406008       12.3523024093       -7.8889146803
 H       -13.6367977635       14.1512869423       -6.0210550559
 H       -12.5980591573       15.4622005970       -5.2748404376
 H       -13.1337754921       13.7723084974       -4.6151592950
 H        -9.6096707412       11.7898205761       -4.6921573944
 H        -9.3393944312       10.3196654091       -5.8170863181
 H       -10.0143813255        8.6936932639       -4.0764417240
 H       -11.0135177634        9.9121644904       -3.1679844044
 H        -8.8675726202        7.0533687559       -1.1269544942
 H        -8.4940838530        8.3558356593       -0.1134866467
 H        -6.9007837472        7.0053227729        1.1599274245
 H        -6.6479895107        5.8031727119       -0.1549946886
 H       -10.3261511679        3.7344936360        3.9127397658
 H        -9.2549517336        4.9032344115        4.1339425348
 H        -8.7399124652        3.1393802556        5.9890421011
 H        -7.7958641396        2.3843895360        4.6255565028
 H       -10.9749921983       -0.5331879451        3.9110355790
 H       -10.9905335971       -1.7009250704        5.2389873143
 H       -11.5096530899       -2.7321373984        3.0041005115
 H       -10.3183707615       -3.6353619160        3.7763681608
 H       -11.6721806584       -3.6768841398        1.0468548091
 H       -11.5927164768       -4.6836822661       -0.3961126786
 H       -13.0182589887       -3.1134760134       -1.3825823283
 H       -11.7826078017       -2.0716639776       -1.4235886892
 H       -13.5209662236        1.7435382255       -2.0913025647
 H       -12.4347624337        0.7174901653       -2.9779957079
 H       -11.7796453468        2.2818926678       -2.3115589962
 H       -14.5009299326       -1.3837416678       -1.8932126717
 H       -14.6835437082        0.2595496530       -2.0160920307
 H       -15.7144400088       -0.6230022953       -0.8541986095
 H       -14.8526234150       -0.3365341351        1.4234378273
 H       -14.8307931742        1.2672368606        0.7437347474
 H       -13.4224045304        0.7011930039        1.5845310252
 H        -7.4745681271       -1.9248593585        0.7896561432
 H        -7.2674791125       -3.1583921184       -0.3670987096
 H        -6.8327698088       -3.4546168440        1.1193040501
 H        -9.7176681692       -5.4279258051        1.8455380065
 H        -7.9673192148       -5.2481367703        1.9630254338
 H        -8.8905904811       -5.6561031969        0.3576981643
 H        -8.1423909753        1.5735424499        7.2729750259
 H        -7.1351849659        0.5699154332        6.3229246076
 H        -8.1019618147       -0.0520632496        7.5799308923
 H       -10.8985819069       -0.7465743269        6.7272637859
 H       -11.2042809456        0.9864443860        6.5671788553
 H       -10.0899446045        0.3422706924        7.8823518735
 H        -5.9108441736        2.4996258314        1.5025441241
 H        -5.9695666449        4.0480047731        0.4116079049
 H        -7.0810737416        2.7963188299        0.2085151158
 H        -7.4223070227        5.8875457951        3.3373016885
 H        -5.9760720638        5.5144447647        2.3470383255
 H        -6.4463299799        4.5267888792        3.7529037078
 H        -8.2833018548        7.1215793306       -3.6013158931
 H        -6.7427449069        7.5172777373       -4.4316732650
 H        -8.3149943632        8.3450116378       -4.7429580350
 H        -6.9113844831       10.3914240694       -4.1434440488
 H        -5.5028126193        9.8112257400       -3.0741937090
 H        -6.8281741542       11.0188659453       -2.4776531054
 H       -13.6412776313       12.7556637534       -7.8370304185
 H       -14.1958180951       12.0135161401       -6.4269460848
 H       -13.3788228397       10.9550434168       -7.4934885234
 H       -10.0097061836       12.9640956346       -7.6949226106
 H       -11.6081113045       12.8538913661       -8.5575548429
 H       -10.6432848677       11.3657903646       -8.2603307237
 Na      -10.5734080714        0.3718118440        1.8571414693
