117

 C       -12.1448592735       14.2978909649       -5.6293508460
 C       -11.1341033715       13.2812991328       -5.9476757020
 O        -9.9302542020       13.4984229818       -5.8005176682
 C       -11.5311004073       11.8909313869       -6.5655547731
 C       -11.1699648532       10.7344089336       -5.6663995022
 O       -11.6206374543        9.6172965027       -5.9181139092
 C       -10.0537960694       10.9650281432       -4.5992671991
 C        -9.9519943471        9.4485244950       -3.9271442303
 C        -8.8307255197        9.5848998661       -2.9577554420
 O        -8.8728813522       10.2779167697       -1.9898298667
 C        -7.3306483454        9.0107946269       -3.1507001432
 C        -6.7576095505        8.3880066230       -1.7336133105
 O        -5.7433987509        8.6914347596       -1.2504504573
 C        -7.8602686150        7.3608715700       -1.0682214218
 C        -7.1470973717        6.2375016343       -0.1573609057
 C        -8.1804884891        5.2944917354        0.4865515706
 O        -9.3018993430        5.0441867822        0.1402564665
 C        -7.6845993549        4.4931272584        1.7142295236
 C        -8.9187775797        3.5006699885        2.4067710843
 O        -9.3390116525        2.7144929275        1.6190445236
 C        -9.4916579320        3.6206611594        3.7903982790
 C        -8.9800435495        2.6333477287        4.8609448124
 C        -9.6748496565        1.2959599359        4.8829761397
 O       -10.7300788210        1.0933252204        4.2334803687
 C        -9.2104674819        0.1861448953        5.9724262297
 C        -9.2368635664       -1.1513138132        5.0473255398
 O        -8.1817981816       -1.4853846278        4.6012724438
 C       -10.5170707938       -1.8032529783        4.5848596056
 C       -10.0301731432       -2.8870682788        3.6102687765
 C        -9.4585906360       -2.2219116350        2.3307895378
 O        -9.2896654062       -1.0063484223        2.1905242776
 C        -9.0997441880       -3.1049552191        1.0374452320
 C       -10.3340714557       -2.7000038981        0.2728399346
 O       -10.3475887052       -1.7169961518       -0.3981608230
 C       -11.5962128856       -3.6362262547        0.3736906966
 C       -12.8742639664       -2.8457383828        0.0887733143
 C       -12.9797627968       -1.5122371689        0.7754675875
 O       -12.3412192402       -1.1673617005        1.6848991752
 C       -13.7518242742       -0.5026776426       -0.0957465730
 C       -12.6530271373        0.5918692732       -0.7084505032
 O       -11.8437215062        1.1322462720        0.0206312046
 C       -12.7935451124        0.9950204191       -2.1437327005
 C       -14.8031051050       -1.1342409516       -1.0625172476
 C       -14.5703005605        0.4953492485        0.8213677197
 C        -7.7441066402       -2.9310868678        0.3184223140
 C        -9.0346981623       -4.6385445080        1.5100447317
 C        -7.7275953491        0.2715596367        6.4070527526
 C       -10.2093158069        0.1818097694        7.2142115727
 C        -6.6420429545        3.3925560878        1.1086848221
 C        -6.9676263665        5.3637199950        2.7943580526
 C        -7.5966646468        7.9339284508       -4.2589855826
 C        -6.5006432291       10.2089793880       -3.5384891624
 C       -13.0062433895       11.8858727830       -7.0398433253
 C       -10.6678830999       11.6178654150       -7.7981140354
 H       -11.6014886508       15.2576140023       -5.6048449000
 H       -12.6472453364       14.2190254723       -4.6594106984
 H       -12.9965342528       14.5332629284       -6.4382357254
 H       -10.3438852668       11.6781863637       -3.9003706571
 H        -9.1304331166       11.2521785671       -5.0463694841
 H        -9.7214545459        8.5834543520       -4.5339923350
 H       -10.8420642918        9.4438975432       -3.3324249147
 H        -8.5179064372        6.8571337740       -1.7943453324
 H        -8.5416680589        7.9888788789       -0.4865970526
 H        -6.6699659386        6.9064042795        0.5753890643
 H        -6.3315485021        5.7990478406       -0.7729710899
 H       -10.4868396326        3.4969436073        3.7702709863
 H        -9.3292124536        4.5898738580        4.2670108027
 H        -9.4745248187        2.9935121311        5.7914008755
 H        -7.8754719219        2.6516043415        4.8926311266
 H       -11.1118706352       -0.9874771441        4.1837799364
 H       -10.9846065736       -2.2205331642        5.5533079928
 H       -10.9296967540       -3.6203822000        3.3791115956
 H        -9.3163934432       -3.6260888765        4.1216008402
 H       -11.5843668313       -3.9711093320        1.4519438891
 H       -11.6173121942       -4.4716023898       -0.2480952057
 H       -13.8117425554       -3.4473150157        0.1132055757
 H       -12.7899170309       -2.5728229999       -0.9046468951
 H       -13.6262737666        1.6605358755       -2.0959291281
 H       -13.1202126755        0.2454799119       -2.9190669038
 H       -11.8409008003        1.3595965613       -2.6478781983
 H       -14.3588435404       -1.5109548441       -1.9393956049
 H       -15.4331136630       -0.3531267373       -1.4317732034
 H       -15.1247429626       -2.0126049641       -0.5766201367
 H       -15.4276501876       -0.0396360620        1.0312700982
 H       -14.8097991826        1.4276324839        0.1644795554
 H       -14.0078627622        0.8660378134        1.6806420565
 H        -7.7674257500       -2.1943798179       -0.5063000065
 H        -7.4067521671       -3.8649732062       -0.2376976720
 H        -6.9519857460       -2.6194384023        0.9373021670
 H       -10.0094964544       -5.2177805730        1.4411210988
 H        -8.8344655285       -4.8199748066        2.6184122411
 H        -8.2521393485       -5.2224468319        1.0419914296
 H        -7.4828049334        1.1467583042        7.0114394829
 H        -7.0882321301        0.4416470527        5.5932709067
 H        -7.4430760552       -0.5896694038        6.9653891801
 H        -9.5902183821       -0.0342216647        8.1043384330
 H       -10.9578001378       -0.5894852019        7.2881284299
 H       -10.5703146269        1.1847975877        7.2953775414
 H        -6.3676914188        2.7676412367        1.9539821049
 H        -5.6008498927        3.8236112681        0.8480117002
 H        -7.1231914526        2.9866761486        0.3248738555
 H        -7.4216560729        5.6526000777        3.7318592545
 H        -6.3413049079        6.1132933757        2.4001055551
 H        -6.2189884940        4.7488421964        3.1456708854
 H        -8.4520850654        7.3216296744       -4.0205338873
 H        -6.8578843698        7.0936550191       -3.9927338401
 H        -7.7122871685        8.3826656967       -5.2230710293
 H        -6.7986560210       10.5246465554       -4.5320808015
 H        -5.5604627943        9.6306304621       -3.5975946470
 H        -6.5892934483       10.8864077407       -2.6744661378
 H       -13.3245094373       12.8291398460       -7.4475085434
 H       -13.7250370473       11.6583404489       -6.2800399788
 H       -13.1510177748       11.1662652409       -7.8145893512
 H        -9.6514506447       11.6022347318       -7.6404964059
 H       -11.0483706574       12.3696739484       -8.4326441321
 H       -11.0797927919       10.7465255824       -8.2098219600
 Na      -11.0408837792        0.7052188983        1.9927068818
