117

 C       -11.4750851943       14.1213047708       -5.6693473139
 C       -10.5441921065       12.9520391007       -6.0820803693
 O        -9.3450190949       12.9382700749       -5.8287850431
 C       -11.2108806926       11.7000038386       -6.8459931403
 C       -11.1008487670       10.4670908584       -5.8625198562
 O       -11.3599266109        9.3905660951       -6.3148705825
 C       -10.6634666990       10.5785646141       -4.3918229731
 C        -9.8440217678        9.1819755979       -3.9475374372
 C        -8.5333346140        9.5043135543       -3.0390943092
 O        -8.6198873245       10.2713629681       -2.1353053464
 C        -7.1283985500        8.7991822099       -3.2528517247
 C        -6.7838687456        8.0544524512       -1.8148378123
 O        -5.9820980616        8.5665530597       -1.0630434533
 C        -7.8238217268        7.1156657371       -1.4208546134
 C        -7.1711957524        6.1650131063       -0.2497009630
 C        -8.1797524789        5.2864860403        0.3554380318
 O        -9.2375354692        5.1321364931       -0.1899605465
 C        -7.8196318580        4.4887417172        1.6586716498
 C        -9.1242745240        3.5758407389        1.8688106336
 O        -9.6224686187        2.9466590699        0.9569100212
 C        -9.6144598139        3.5689242802        3.3226131508
 C        -8.7761081338        2.4972144041        4.0929660252
 C        -9.5959185595        1.3903764166        4.9219662846
 O       -10.7140413287        1.1382601134        4.5002674894
 C        -9.0245838709        0.4738374095        5.9726648460
 C        -8.7239529267       -1.0199727348        5.4418219570
 O        -7.6323561409       -1.3606537276        5.3581839497
 C        -9.9286877250       -2.0525246544        5.2509776353
 C        -9.6491280017       -3.0595178613        4.0876795464
 C        -9.5641680711       -2.1181837605        2.7583071276
 O        -9.6453124288       -0.9132953833        2.8022566360
 C        -9.4260975586       -2.8090073830        1.2020167712
 C       -10.8959273339       -2.6856005966        0.3954263562
 O       -11.0508753622       -1.9639397284       -0.5212851046
 C       -12.0714954512       -3.5675419225        0.8087766140
 C       -13.4018287251       -2.7473592197        0.6263698794
 C       -13.1033648378       -1.3327338996        0.8052590758
 O       -12.4445064466       -1.0097290354        1.7253196043
 C       -14.0594583265       -0.2438138574        0.0312209381
 C       -13.1416616794        0.7015620442       -0.8089121118
 O       -12.4238446467        1.4906269296       -0.1644415706
 C       -13.0323511814        0.5176939592       -2.2814893960
 C       -15.1852624034       -0.9237664948       -0.8582226833
 C       -14.7812826159        0.5362112560        1.0980624673
 C        -8.4057042618       -1.8876854256        0.3720899947
 C        -8.8791668848       -4.1883119912        1.4025403876
 C        -7.5863087091        0.9492978465        6.4792737470
 C        -9.9806444312        0.1532128604        7.1366969801
 C        -6.7923475586        3.3841925943        1.4152540063
 C        -7.3039570105        5.5378202242        2.6956054081
 C        -7.1567214240        7.7263487396       -4.4759534454
 C        -5.9162836815       10.0510381272       -3.2769477717
 C       -12.8545844051       11.7888133057       -7.1259611364
 C       -10.3038374481       11.3601807800       -8.1552250441
 H       -11.8015231199       14.2487760073       -4.5565842420
 H       -12.4265928643       14.0615560950       -6.1600051939
 H       -11.0500351213       15.1404958340       -6.0473327899
 H       -11.5934404763       10.6979931700       -3.9032454758
 H       -10.1721003687       11.4335150893       -4.2232819855
 H        -9.8455145986        8.6191305527       -4.8674672437
 H       -10.5362294814        8.6928556584       -3.2494659647
 H        -8.2692651537        6.5009644770       -2.1906766623
 H        -8.6486429422        7.5276639356       -0.8629198583
 H        -6.5865660880        6.7433910001        0.4814040062
 H        -6.4067494467        5.4432023544       -0.6705768426
 H       -10.5899761132        3.1643998402        3.3131599853
 H        -9.6136228357        4.5175293331        3.8518079051
 H        -8.0656778921        2.8957955204        4.8545690630
 H        -8.1693782153        1.8737850157        3.3594025071
 H       -10.8161968022       -1.5195288316        5.0888752189
 H        -9.9264201884       -2.6057080575        6.2425908264
 H       -10.6182381730       -3.6343873329        3.9487871224
 H        -8.7425351445       -3.6920926768        4.2464702561
 H       -12.0434711681       -3.7300253305        1.9126539072
 H       -12.0216817900       -4.4101173437        0.2395126637
 H       -14.1387708844       -3.0631343871        1.4429528581
 H       -13.8838630334       -2.8213572669       -0.3456079177
 H       -13.9960555628        0.4341981776       -2.7915301041
 H       -12.4687003794       -0.3344157946       -2.7919660937
 H       -12.5385206570        1.4324959812       -2.6538166513
 H       -14.6003804782       -1.4027164641       -1.7531163722
 H       -15.8570741217       -0.0439232870       -1.1053867762
 H       -15.7701372302       -1.6259457801       -0.2486823734
 H       -15.1544109564       -0.0703901593        1.9094791552
 H       -15.5426340656        0.9997369738        0.4177883643
 H       -14.0657121378        1.3406386789        1.5287788611
 H        -8.2042084657       -0.7937075167        0.5516581653
 H        -8.7468194207       -2.0684049027       -0.6634438874
 H        -7.3742320082       -2.2057954258        0.5251726758
 H        -8.3363121551       -4.1753294869        2.3500549629
 H        -8.2501859614       -4.5299702944        0.6303516267
 H        -9.6292530682       -4.9356156359        1.4895235806
 H        -7.4744494206        1.6953827527        7.3021379183
 H        -6.9736905562        1.4395925912        5.6915043423
 H        -6.9594480379        0.0405105523        6.6916878573
 H       -10.0465373848       -0.9556136635        7.4098389209
 H       -11.0146857298        0.3760343174        6.8842936435
 H        -9.7604467390        0.6537388279        8.0267271339
 H        -6.5769696996        2.9586200519        2.3855200062
 H        -5.7752639582        3.7209693052        1.0886035452
 H        -7.4008276439        2.6959522918        0.7590186733
 H        -6.9572756745        5.1683416522        3.6416431268
 H        -8.2214113248        6.1121509194        2.9353487553
 H        -6.6880339935        6.3389885765        2.3962658596
 H        -6.8288469884        6.6481844803       -4.1171428956
 H        -6.4721945211        8.0425869161       -5.3576519507
 H        -8.2124958133        7.6170873056       -4.8440708493
 H        -6.2495202801       10.4535294814       -4.2139721651
 H        -4.9606562091        9.5524252215       -3.3248857810
 H        -6.1958128512       10.6795416705       -2.4675748050
 H       -13.2557001981       12.6687676783       -7.6219356238
 H       -13.1880429672       11.8044139863       -6.1491982792
 H       -13.3037847814       10.9906459469       -7.6845529781
 H        -9.2879347147       11.6227801153       -7.9452223800
 H       -10.8386913998       11.8127259381       -9.0115418614
 H       -10.4294797037       10.2620967878       -8.2498885111
 Na      -10.8287721690        0.8223955883        1.7732793930
