117

 C       -11.2718610672       13.9668484726       -5.7167490623
 C       -10.4982269953       12.8561906377       -6.2046415545
 O        -9.3356251125       12.6946269738       -5.8723398232
 C       -11.1760303050       11.6209029043       -6.7669888248
 C       -10.9545590049       10.3435003711       -5.8442439328
 O       -11.1525891245        9.2482348488       -6.2836733910
 C       -10.5279912628       10.4024630802       -4.3044069059
 C        -9.7135019730        9.2026716554       -4.0784355692
 C        -8.6163833047        9.4700096486       -3.1312868176
 O        -8.7457809659       10.3550865705       -2.2772673014
 C        -7.0885300483        8.7881310913       -3.2963796925
 C        -6.8889486937        8.0621795672       -1.8993699115
 O        -5.9595351880        8.4237577845       -1.1111095584
 C        -7.8760001769        7.0864900391       -1.3989246473
 C        -7.1051004872        6.2128831997       -0.3079170428
 C        -8.1860485606        5.2106555699        0.1656563258
 O        -9.3463059193        5.2056603201       -0.2501021130
 C        -7.8949415618        4.3236022914        1.4866883657
 C        -9.1228170658        3.5644585012        1.8413858817
 O        -9.6954138490        2.8834210380        0.9596357415
 C        -9.6499263074        3.3763436496        3.3150451534
 C        -8.8060316659        2.3728639039        4.1123697656
 C        -9.5872765897        1.2703483878        4.9064571623
 O       -10.6408046645        0.8568135684        4.4664940303
 C        -8.9386240017        0.5172342106        6.0713916597
 C        -8.6804908351       -0.9355971088        5.4968874352
 O        -7.5171568723       -1.3710600183        5.3501081172
 C        -9.7780976462       -2.0622612443        5.3059640313
 C        -9.4207091126       -2.8965527719        4.0106371728
 C        -9.7459209544       -2.0810897411        2.7540895409
 O        -9.6206253077       -0.9105791517        3.0107340933
 C        -9.5848151513       -2.6059670240        1.2243350201
 C       -10.9351784981       -2.6790082833        0.4219648290
 O       -10.9606970854       -2.0835813232       -0.6675021554
 C       -12.1228321298       -3.4911079479        1.0192730044
 C       -13.4403611959       -2.8008116908        0.6830335055
 C       -13.3490930279       -1.1920907743        0.9901229628
 O       -12.4508202781       -0.7942770949        1.6270158642
 C       -14.2775093194       -0.1922916715        0.1264349207
 C       -13.2231018806        0.6334680288       -0.7668150737
 O       -12.4499161713        1.3412699518       -0.0593831276
 C       -13.0135071183        0.5539291364       -2.2224272139
 C       -15.2978675705       -1.0462072989       -0.7572274503
 C       -14.8377624059        0.8647228618        1.1809933876
 C        -8.6622852800       -1.7140833895        0.3681208727
 C        -8.9570442112       -3.9550989450        1.4433111375
 C        -7.5712278267        1.1034435268        6.5429235110
 C       -10.0619042245        0.5104505064        7.2381340372
 C        -6.5636098018        3.5352782695        1.3805621959
 C        -7.5794713607        5.4075082670        2.6494171717
 C        -6.9769515473        8.0122400742       -4.5403486660
 C        -5.9729961910        9.8211512339       -3.3849492760
 C       -12.5614346226       11.9226086979       -7.1124500987
 C       -10.2881433785       11.2817784580       -8.1281422988
 H       -11.6670841159       13.7300856916       -4.6556550464
 H       -12.1742483782       14.3693052321       -6.2369065104
 H       -10.6420540115       14.7263128398       -5.6395809365
 H       -11.3540407507       10.5528264679       -3.5641838931
 H        -9.9322358109       11.3428829720       -4.2213890041
 H        -9.3955654209        8.8673913269       -5.0369271262
 H       -10.3834341488        8.3868382466       -3.7117274966
 H        -8.3602886259        6.4281179281       -2.0710847173
 H        -8.6404332567        7.3987450381       -0.7009279321
 H        -6.8544291583        6.8260554005        0.5321301565
 H        -6.0843323798        5.7733847429       -0.6084894113
 H       -10.6664467542        2.9455811598        3.1874718566
 H        -9.6435980390        4.1991454127        3.8992904867
 H        -8.1642059024        2.8561397077        4.8559108954
 H        -8.0779191096        1.7674268370        3.4931647544
 H       -10.8254131670       -1.6357685611        5.3371733075
 H        -9.5374483147       -2.7203623499        6.1703481589
 H        -9.7844854125       -3.9956308358        4.1111745958
 H        -8.2608455898       -2.8114840437        3.8971185409
 H       -11.9744949632       -3.5558691686        2.0870229547
 H       -12.0873489236       -4.4817408522        0.4969721474
 H       -14.2127233988       -3.2186936636        1.1715207532
 H       -13.5586986345       -2.9084331434       -0.4015029637
 H       -13.9002336378        0.3802549557       -2.9687613931
 H       -12.3981382453       -0.3556520143       -2.5134535993
 H       -12.4238821307        1.4230475553       -2.5414720245
 H       -14.6887266547       -1.5996190662       -1.4216981944
 H       -15.8587298965       -0.2917295837       -1.2140272744
 H       -16.0384831582       -1.5513395500       -0.1677924711
 H       -15.2565578679        0.3003280888        2.0739315045
 H       -15.4688332383        1.5224155189        0.7305165545
 H       -13.9257563959        1.3507809818        1.5504658797
 H        -8.7915868384       -0.6366007089        0.4533055321
 H        -8.8192308861       -2.0005727759       -0.6268816750
 H        -7.5791309647       -1.7269946283        0.6969614202
 H        -7.9070062603       -3.8869341552        1.7821781564
 H        -9.1367396345       -4.6668694690        0.6164349609
 H        -9.5613046774       -4.4324971082        2.3283975777
 H        -7.5885238143        1.9823617439        7.1495374352
 H        -6.9604414036        1.3942937059        5.6619971424
 H        -6.9125400063        0.3630129321        7.0062294734
 H       -10.3538849477       -0.5367293638        7.5223827142
 H       -10.9795594203        0.9277042385        6.8185264992
 H        -9.8950366605        0.9861519367        8.1820174127
 H        -6.3333492824        3.0012043525        2.3231803126
 H        -5.8475843466        4.2958756846        1.2589109950
 H        -6.6636429191        2.7888930798        0.4835038037
 H        -6.9190990158        5.1090208438        3.4069263538
 H        -8.4522267205        5.6805592106        3.2354593086
 H        -7.2291695238        6.3995647939        2.2849205958
 H        -6.1388734944        7.2892640722       -4.5201293064
 H        -6.8571313057        8.7216689220       -5.3177589200
 H        -7.9316862536        7.4216777552       -4.7661307539
 H        -6.0276555601       10.4246452020       -4.3799295986
 H        -5.1228338807        9.1709268340       -3.2672622040
 H        -6.1840030890       10.3588043455       -2.4643425796
 H       -12.7020969959       12.8916234471       -7.4988279354
 H       -13.1163130900       11.8376363656       -6.2337455726
 H       -12.9502140049       11.3163491142       -7.8789458545
 H        -9.5491040388       12.0298817748       -8.0919208234
 H       -10.9499958924       11.4295931225       -8.8907942569
 H        -9.8040762813       10.3291308120       -8.1355050258
 Na      -11.0191729970        0.8581520884        1.7467188863
