117

 C       -11.1043907064       14.0229207571       -5.5951652979
 C       -10.2855494215       12.7347370092       -5.9714689256
 O        -9.0761966842       12.6389398384       -5.8991876463
 C       -11.1389688367       11.5576567658       -6.7950951948
 C       -10.9652924504       10.2442291710       -5.9424195499
 O       -11.0562073719        9.0666167420       -6.3493895152
 C       -10.4526479865       10.2794214935       -4.4518373143
 C        -9.5140157178        9.1640186474       -4.1517798488
 C        -8.4838033295        9.6060318692       -3.1854786759
 O        -8.7702357042       10.3998540241       -2.3097828140
 C        -7.0488910057        8.9022432618       -3.2569902063
 C        -6.9161253974        8.1103311393       -1.9135525665
 O        -5.8914092081        8.3510661853       -1.3303808310
 C        -7.8903872203        7.0342823359       -1.5076570281
 C        -7.2980363213        6.1322729990       -0.4235306539
 C        -8.3163345399        5.1965785943        0.2388050031
 O        -9.3745146057        5.1883773287       -0.3283950269
 C        -7.9350476956        4.3227116913        1.4880500499
 C        -9.1062180727        3.2509706215        1.8902614967
 O        -9.7367025891        2.6833198401        1.0339121230
 C        -9.7200969414        3.0926533754        3.3068069972
 C        -8.7585112692        2.2860944882        4.1440037334
 C        -9.5766524388        1.0973197050        4.7768419250
 O       -10.6885188567        0.8080257892        4.3746941226
 C        -8.9485780282        0.4507375249        6.0736327453
 C        -8.5496951844       -1.0637716036        5.7197947795
 O        -7.3804417396       -1.1902260984        5.3157208006
 C        -9.6446709692       -2.0732641507        5.3212136970
 C        -9.2643037411       -2.7332727711        4.0297203989
 C        -9.5468440101       -1.8119161429        2.7782603039
 O        -9.7634864623       -0.6037322641        2.8220726046
 C        -9.6506129248       -2.5116710303        1.4022473113
 C       -10.9575031445       -2.6391893780        0.5302834788
 O       -11.0530001753       -2.3237864666       -0.6744208888
 C       -12.1636748003       -3.2844940207        1.2212029571
 C       -13.4754253774       -2.7260540767        0.6599717754
 C       -13.4839150355       -1.2000794175        0.9144006328
 O       -12.5651022235       -0.7521223159        1.6662022544
 C       -14.3318990238       -0.2048254446        0.2300825954
 C       -13.1604344475        0.5598301908       -0.6219019828
 O       -12.4035837419        1.2860500802       -0.0578545557
 C       -13.1260205937        0.4818847783       -2.0931992401
 C       -15.4178232913       -0.8993505230       -0.5774832773
 C       -14.9851714702        0.9191753920        1.1463785410
 C        -8.7875418565       -1.5354893553        0.5922300444
 C        -9.0161714447       -4.0408030464        1.2457768502
 C        -7.7072305886        1.1656948940        6.6286701676
 C        -9.9507586353        0.7710492029        7.2597170182
 C        -6.4430653465        3.6544342833        1.2570309870
 C        -7.8662738286        5.3558268110        2.6905293471
 C        -6.8920660504        7.9718046596       -4.5917781018
 C        -5.9826742040        9.9591144881       -3.4009145659
 C       -12.5370401322       11.8424035460       -7.2165184574
 C       -10.3141200343       11.1298269342       -8.1699192438
 H       -11.8802731282       13.9136661862       -5.0044996144
 H       -11.4739415628       14.6053324552       -6.4389934131
 H       -10.3669946691       14.7026604237       -5.1026754873
 H       -11.2740914350       10.2863889786       -3.6255094589
 H        -9.9304859150       11.3332228241       -4.2768163838
 H        -9.1250395439        8.8157151883       -5.1512754345
 H       -10.0481036214        8.2654770069       -3.7919746626
 H        -8.0444931236        6.2888863903       -2.2821577202
 H        -8.8844575309        7.3091480092       -1.1330286470
 H        -6.6096678087        6.6211910408        0.2895552409
 H        -6.6024533468        5.5215194900       -0.9835066067
 H       -10.7378602499        2.6457680937        3.1981782231
 H        -9.6339339431        4.1228445009        3.7744346620
 H        -8.1958755880        2.8317947289        4.8956025494
 H        -7.9576189289        1.8016998378        3.5946354210
 H       -10.5165343079       -1.3544912953        5.0896282634
 H        -9.9129019231       -2.8108834604        6.0552577525
 H        -9.9815372463       -3.5494868408        3.8890953663
 H        -8.1945246049       -3.0934452365        3.9897759106
 H       -12.0654886241       -3.1788897142        2.2808513588
 H       -12.1896295807       -4.3895191402        0.8624875389
 H       -14.2625815695       -3.0172561590        1.3370468040
 H       -13.5820876798       -3.0956206549       -0.3377860813
 H       -14.0205831986        0.2854909296       -2.6891953321
 H       -12.6102109683       -0.4395464326       -2.3304637890
 H       -12.5462842766        1.3467840867       -2.5396362241
 H       -14.9710216354       -1.5252026338       -1.2319049571
 H       -15.9862884342       -0.1537175572       -1.0380629696
 H       -16.1995194532       -1.2511613566        0.0679654006
 H       -15.6774174555        0.4277087195        1.8028565425
 H       -15.4428200098        1.6808299175        0.5173985650
 H       -14.2293120419        1.2745846615        1.7113549428
 H        -9.3628375806       -0.6622000444        0.5014268350
 H        -8.5652053840       -1.8532796214       -0.4261746324
 H        -7.9909218685       -1.0941865574        1.1388847542
 H        -7.9364471002       -3.9578937744        0.9286306253
 H        -9.6744576874       -4.5206719902        0.4153105184
 H        -9.0651681597       -4.7409075590        2.1289568239
 H        -7.8989401720        2.2168271819        6.7594286422
 H        -6.8527594322        1.0730981815        5.9858044439
 H        -7.3795586464        0.8173325939        7.5677259830
 H       -10.2141246591       -0.0843735779        7.8120378099
 H       -10.8658353280        1.2525246121        6.8670342567
 H        -9.6168047597        1.4350641058        8.1420155865
 H        -6.2006347501        2.8907523681        2.0770261811
 H        -5.7142044935        4.4941374163        1.1846514866
 H        -6.5296613591        3.1649483283        0.3796239666
 H        -7.2699349819        4.8876674831        3.5019923712
 H        -8.7397245136        5.6688170230        3.2777461959
 H        -7.2702717840        6.2201099076        2.3879814044
 H        -5.8794378491        7.9410777789       -4.7853782224
 H        -7.4822664386        8.3586830854       -5.4472249596
 H        -7.1312319454        6.9537986826       -4.4997831999
 H        -6.0754139995       10.4627088484       -4.3907957801
 H        -5.1058608968        9.3009436718       -3.2642559921
 H        -6.0847082629       10.5616901741       -2.4539913434
 H       -12.5726893192       12.6098555563       -7.9362380360
 H       -13.1731504586       12.1300074672       -6.3329282074
 H       -12.9399474404       10.9771431097       -7.7114213498
 H        -9.7498668007       12.0220170772       -8.2935349034
 H       -11.0783586018       11.0986904471       -8.8884640500
 H        -9.6670144221       10.3193858075       -8.0962294047
 Na      -11.0710811175        1.0190894256        1.8136211667
