117

 C       -10.0663815941       13.4492191133       -5.4263815301
 C        -9.6708960191       12.1384986897       -6.1979261330
 O        -8.4762714531       11.8877522701       -6.2520586148
 C       -10.7604507395       11.2336398906       -6.9844933490
 C       -10.8030964857        9.8382419682       -6.2816932327
 O       -11.2121005817        8.8596971913       -6.8285112293
 C       -10.2816307900        9.7986337868       -4.9261161233
 C        -9.0822914991        8.8469022756       -4.7589107175
 C        -8.1440244620        9.3929957690       -3.5654836627
 O        -8.6873529135       10.1025968209       -2.7344430098
 C        -6.7729236017        8.9240817337       -3.3431628166
 C        -6.8124896817        8.0350721508       -2.0953795962
 O        -5.7418082776        7.7019085357       -1.4681924952
 C        -8.0873868314        7.1588362981       -1.6190802405
 C        -7.5322690545        5.8333187183       -1.0472269444
 C        -8.6140646171        5.1596346929       -0.1966284822
 O        -9.8034854311        5.3351156444       -0.5436502746
 C        -8.0954465373        4.3453268435        1.1929162869
 C        -9.0265355182        3.2098379625        1.8105862197
 O        -9.5805603889        2.3357423266        1.1816503495
 C        -9.5169258319        3.3522482720        3.4271731336
 C        -8.9693545693        2.2351164733        4.2276563557
 C        -9.8813424292        1.5816595882        5.1980250561
 O       -11.0987832784        1.4678608792        5.1321815679
 C        -9.0217915995        0.6777011200        6.2434213581
 C        -8.4590479352       -0.5946526752        5.5314265492
 O        -7.2850766482       -0.8559549963        5.4751691331
 C        -9.5132167987       -1.6156633607        4.9235544496
 C        -9.0262662257       -2.2655497608        3.6734998992
 C        -9.4357324257       -1.5832771455        2.3116747004
 O        -9.9558021169       -0.4666954726        2.3558593138
 C        -9.5638581134       -2.4899689561        1.1486401194
 C       -11.2239994082       -2.7421590889        0.7953388735
 O       -11.5443316404       -2.8096737244       -0.3430960218
 C       -12.1256686657       -2.9645081559        1.9615166006
 C       -13.5326599043       -2.3877213621        1.6208573031
 C       -13.7706412877       -0.8657758645        1.7848669558
 O       -13.1521859040       -0.2384247617        2.6776807419
 C       -14.5119892054        0.0293652731        0.6675378678
 C       -13.3723267161        0.4732285549       -0.4028018850
 O       -12.4248943891        1.1039451409       -0.0489918450
 C       -13.6393089093        0.4770476947       -1.9040805301
 C       -15.5894976427       -0.9026301636        0.0742912939
 C       -15.1518047144        1.4088691702        1.0557364970
 C        -8.8514727711       -1.5819504521        0.1627896205
 C        -8.8617083078       -3.8724118050        1.1510242704
 C        -7.9230570096        1.5956204623        6.8451218073
 C       -10.0442623977        0.1438394622        7.3098986315
 C        -6.6975839442        3.7301377242        0.9884895283
 C        -8.2500001286        5.6604025849        2.1680514408
 C        -6.2589587812        8.1202933609       -4.4572543796
 C        -5.7442721525        9.9860507970       -2.8464779274
 C       -12.0724807715       11.9499820482       -6.9685016687
 C       -10.1644814952       10.9537313328       -8.4317662405
 H        -9.3469030260       14.3413579084       -5.7050025784
 H        -9.8411249756       13.2833896452       -4.3692285604
 H       -11.0019639031       13.8847001065       -5.5120652682
 H       -11.1072249778        9.3574284093       -4.2131289592
 H       -10.0880209987       10.7487498354       -4.3638902892
 H        -8.5130375768        8.5818739041       -5.7043027844
 H        -9.4185646526        7.8146619140       -4.5064091673
 H        -8.6861563924        6.9920352946       -2.5681634797
 H        -8.7073899428        7.6504749100       -0.8842267711
 H        -6.4909112032        6.0868964853       -0.7818381182
 H        -7.3485086603        5.1405019082       -1.8349977438
 H       -10.6200207392        3.5655394182        3.3812030600
 H        -9.1251512192        4.3418708909        3.7704107055
 H        -7.9992428827        2.4789123568        4.6218064072
 H        -8.6632952985        1.3644373108        3.6445268838
 H       -10.4087723618       -1.0535674467        4.7260194987
 H        -9.8202898495       -2.3923972774        5.7057708983
 H        -9.5568705984       -3.2407611158        3.5867321912
 H        -7.9317986507       -2.3652645915        3.7162686142
 H       -11.7846841272       -2.5377544260        2.9700145579
 H       -12.1205922701       -4.0320698524        2.1065857407
 H       -14.2933201638       -2.9963043734        2.1795969264
 H       -13.6420264379       -2.4251685841        0.5479430868
 H       -14.1429601409        1.3857799324       -2.2546438317
 H       -14.2599477314       -0.3208162242       -2.3660047900
 H       -12.7373737706        0.6687835429       -2.4616727576
 H       -15.1295031196       -1.8294646813       -0.3483896354
 H       -16.1117766914       -0.4865897620       -0.8193322643
 H       -16.2967350003       -1.2251096369        0.8262515756
 H       -15.7044968929        1.4179331838        1.9579702184
 H       -15.8426921455        1.5873729379        0.3048981098
 H       -14.3880613467        2.1678996676        0.9863902715
 H        -9.0360709002       -0.5158193575        0.3008812188
 H        -9.1149429297       -1.7557551943       -0.8549768388
 H        -7.8358933566       -1.9330581782        0.1446253897
 H        -7.7732333561       -3.7788076436        1.5354099629
 H        -8.6910362329       -4.1094599782        0.0878804956
 H        -9.4936525083       -4.5818973000        1.7912335680
 H        -8.2000170023        1.9937475759        7.7980625599
 H        -7.6394430064        2.3447873979        6.1783783610
 H        -7.0041583865        1.0997427258        7.0993624391
 H        -9.4551375111       -0.2629891837        8.2279469000
 H       -10.7286367547       -0.6781644006        6.9523558634
 H       -10.7176175960        0.8253787279        7.7380830113
 H        -6.4771940292        3.3150871940        1.8776502216
 H        -6.1161434774        4.5154458964        0.5959766134
 H        -6.8193652163        2.8745396967        0.1864754737
 H        -7.7754101736        5.5618076830        3.1651662570
 H        -9.3362845163        5.7898264167        2.3059086943
 H        -7.7939301183        6.5490767773        1.7317894375
 H        -6.7483033542        8.4419980139       -5.4104992489
 H        -6.4558128843        7.1030784271       -4.3137994419
 H        -5.2186484078        8.0823091433       -4.6380645625
 H        -5.5896783858       10.7794919988       -3.6061258731
 H        -4.8698426926        9.4083617826       -2.4251898955
 H        -6.2426709170       10.3194058802       -1.9176668649
 H       -11.9094615091       12.9808718872       -6.6859714392
 H       -12.6648049493       11.5016551805       -6.2484693883
 H       -12.6579942377       11.8724563389       -7.8690757392
 H       -10.2575931859        9.9390279478       -8.5567222140
 H        -9.1178439480       11.1651485081       -8.3703251899
 H       -10.6542679955       11.5434280479       -9.1547118035
 Na      -11.3316792028        1.0296143102        2.0217027489
