117

 C        -8.3068112809       -6.4772933883        3.9908173201
 C        -7.3355775758       -5.7368699070        3.0096395684
 O        -6.2619678802       -6.0742447901        2.5310189341
 C        -7.7489975839       -4.1898609239        2.7503601135
 C        -9.1902794577       -4.2386146416        2.1001205771
 O        -9.4741363206       -5.1030003240        1.3562198843
 C       -10.1114436850       -2.9454713479        2.2795120980
 C       -11.4277408760       -3.2500476052        1.5411750842
 C       -12.0849999087       -2.0596863620        0.8729249730
 O       -11.9169534011       -1.7576689111       -0.2987588184
 C       -13.0018293563       -1.1147629994        1.7557038311
 C       -12.1204391031        0.0673595838        2.2179956435
 O       -11.6214453314        0.0757469768        3.3161073259
 C       -11.7979914189        1.3336829739        1.2600273789
 C       -10.2592225870        1.6684103394        1.2157751842
 C        -9.8638120418        2.5973463714       -0.0722123084
 O        -9.3254366726        3.6789082073        0.0833208799
 C       -10.0954155875        2.1246462917       -1.5704077561
 C       -11.4850577026        2.6749278081       -2.0790240549
 O       -12.3671185305        2.8782046121       -1.2584204053
 C       -11.7808546844        2.8183140293       -3.5148795085
 C       -12.4087767732        4.1946614276       -3.9533285374
 C       -11.6054098329        5.2603874896       -3.1665081756
 O       -10.4463265352        5.0036441408       -2.8934209695
 C       -12.3032078830        6.5393813507       -2.5845460235
 C       -11.1846143428        7.6145518496       -2.3230896475
 O       -10.3707353064        7.7011954961       -1.4143842934
 C       -11.2051741175        8.7018367141       -3.3791862456
 C       -10.1266690612        9.6793532883       -3.2506599816
 C       -10.3045562146       10.5461073407       -1.8224048640
 O       -11.4037112815       10.5775839500       -1.3327115373
 C        -9.0525525591       11.3498336759       -1.2135889599
 C        -8.2815800757       10.4624653819       -0.1802729777
 O        -7.2322672349        9.9970711276       -0.4491681459
 C        -8.8952292005       10.1474364874        1.2017699837
 C        -7.8605602774        9.4315845826        2.0493778394
 C        -7.7171744431        7.9540123448        1.3932612852
 O        -8.6958030421        7.2750768451        1.2589153066
 C        -6.3734743975        7.2859785388        0.9731667017
 C        -6.2599021832        6.9735717481       -0.5074361194
 O        -7.1587235896        6.3206709845       -1.0519744090
 C        -4.9818197590        7.3218998996       -1.2826476793
 C        -5.2076852740        8.1185160867        1.5900443465
 C        -6.1625789653        5.9230565249        1.7393445480
 C        -8.1127184686       11.8130153464       -2.2792955885
 C        -9.5931433359       12.5489609744       -0.3584293836
 C       -13.4637377109        7.0251314062       -3.4798279908
 C       -12.9139706739        6.0895336176       -1.1858954382
 C        -8.9221620439        2.5647370890       -2.4199015172
 C       -10.1582484979        0.5878419009       -1.5905555836
 C       -14.2922330064       -0.7166893828        0.9617306702
 C       -13.5822109719       -1.7455339728        3.0919646018
 C        -7.6673349915       -3.5364385605        4.1146375517
 C        -6.7751901101       -3.5672591253        1.7220612985
 H        -7.9087777582       -7.4358944557        4.2707699526
 H        -9.3293016687       -6.5537130939        3.7048925487
 H        -8.1065932610       -5.8954195634        4.8525404746
 H        -9.6295884666       -2.1631959006        1.6580451713
 H       -10.3082160846       -2.5869521709        3.2547516295
 H       -12.1854237135       -3.7961794172        2.1564260952
 H       -11.1713844700       -3.9349447538        0.6793825281
 H       -12.3345414351        2.1760730096        1.6899307233
 H       -12.1692492021        1.2345074849        0.2689697269
 H        -9.5124291774        0.8294612166        1.0999282118
 H        -9.9404618352        2.1390944300        2.1601202520
 H       -12.4406684364        1.9288859419       -3.7942267373
 H       -10.9368337158        2.6756814250       -4.2070996243
 H       -13.4357625768        4.2726737824       -3.5204011481
 H       -12.3872455097        4.4564096280       -5.0738376515
 H       -12.1990993934        9.1553290413       -3.3202740905
 H       -10.9874929455        8.2709630313       -4.3200620296
 H       -10.3078720142       10.4199109233       -4.1170512117
 H        -9.2721634284        9.1001982544       -3.3500310195
 H        -9.8056199972        9.5063713179        0.9771052531
 H        -9.2549146521       10.9904459018        1.7558180861
 H        -8.1373694253        9.3694057264        3.0811521661
 H        -6.8186737458        9.9187859306        2.0505430385
 H        -5.0221544408        8.3471408907       -1.7320880068
 H        -4.8830832958        6.6244235686       -2.1581743936
 H        -4.1921925171        7.3834557947       -0.5900112506
 H        -5.2078166606        8.3265818027        2.6578048058
 H        -5.0533710461        9.0389159256        1.0391842166
 H        -4.2707803016        7.5440409563        1.4660008839
 H        -5.5768545463        6.0095488947        2.6664952974
 H        -5.5222605542        5.2834695911        1.2324966407
 H        -7.1678804744        5.4171495348        1.8158535261
 H        -7.7025581505       12.7462840803       -1.9219836429
 H        -8.7306660001       12.2813541732       -3.0305881387
 H        -7.4476297670       11.0656750496       -2.5780318912
 H        -8.8925576271       12.9726719443        0.4066128016
 H       -10.5097697593       12.3113270034        0.1025967294
 H        -9.8114598448       13.4479628088       -1.0211374707
 H       -14.2796905499        6.3401677728       -3.4901732707
 H       -13.2522372365        7.2250288859       -4.5204392474
 H       -14.0988641213        7.8630760882       -3.0118513143
 H       -12.8700292421        5.0327863029       -1.2337894602
 H       -13.9424720568        6.5101095039       -0.9062304170
 H       -12.2819991779        6.4068914249       -0.3738718014
 H        -9.2295020184        2.3366217882       -3.4062659398
 H        -8.1375468967        1.9272714610       -2.1219386993
 H        -8.6520137206        3.6293191926       -2.3660710190
 H       -11.1034192858        0.2161586239       -1.2884605404
 H        -9.4046645542        0.0485599933       -1.0116741967
 H        -9.9889616069        0.2687822344       -2.6042360785
 H       -15.1349599130       -1.2565746904        1.3915996136
 H       -14.0632917920       -0.9526913897       -0.1009223179
 H       -14.4302454913        0.3277602535        0.9319924216
 H       -14.1955314917       -2.6091695294        2.8788192500
 H       -14.0929626203       -0.9235443511        3.4974011853
 H       -12.8745164126       -1.9986962284        3.8652041406
 H        -8.5161568269       -3.9732169395        4.7173492951
 H        -7.8356601209       -2.4737708471        4.0123471253
 H        -6.7729337055       -3.4190070983        4.7705395634
 H        -5.7800163689       -3.3924890076        2.1610801799
 H        -7.1914588137       -2.7018576386        1.2074517221
 H        -6.5442749037       -4.3194885487        0.9129965092
 Na       -9.4033555199        5.8983939242       -0.6823666415
