117

 C       -13.5802353100        1.0114928307      -10.3027494130
 C       -12.7135688001       -0.2338534520       -9.7943787162
 O       -13.3705666569       -1.1965925513       -9.4317413708
 C       -11.2366301369       -0.3770437978       -9.9683428618
 C       -10.6330057400       -0.4785198654       -8.5203682188
 O        -9.8899916938       -1.3321928315       -8.1719242932
 C       -11.1072701150        0.6363516164       -7.6079173075
 C       -10.4861237971        0.3174487670       -6.1110921003
 C       -11.0386703129        1.1910793117       -5.0265977294
 O       -11.8114166566        2.0941450442       -5.3658643700
 C       -10.7521531092        0.7438585712       -3.5633234661
 C       -10.4150282500        2.2019624432       -2.8839610014
 O        -9.2817024448        2.5581704777       -2.6059017172
 C       -11.5131079611        3.2738598870       -2.5755832263
 C       -11.0282224415        4.6918887124       -2.2714111069
 C       -10.3373463768        4.9932546144       -0.9371251524
 O       -10.2886883996        4.0765281304       -0.1213366341
 C        -9.8002607676        6.4072017741       -0.7681053607
 C       -10.4717601924        6.9786345351        0.4615845722
 O       -10.5385263915        6.3579304792        1.5022447580
 C       -10.9549130258        8.3682296265        0.4151981372
 C       -11.8571056666        8.6953923914        1.5611150022
 C       -11.1918337645        8.5838885458        2.9913125454
 O       -10.1962899824        9.2368760700        3.2528760710
 C       -11.8701096077        7.4909548424        4.1325240735
 C       -10.6760500398        6.5074617123        4.6581081141
 O       -10.5267152214        5.3760185155        4.2312361142
 C        -9.6918317108        7.2372712835        5.4895805998
 C        -8.3473614371        6.5298907800        5.7261280066
 C        -8.3838150988        5.3702808672        6.7901089938
 O        -9.2887755342        5.0951725518        7.5274824999
 C        -7.0802209255        4.4561399667        7.0115598889
 C        -7.1206814650        3.3154650108        5.9839159833
 O        -6.3613893941        3.1768994533        5.0795324964
 C        -8.2381864319        2.2025202638        6.0332653192
 C        -8.0241361445        1.1357108370        4.9557649710
 C        -8.2707292815        1.8671687331        3.4787218934
 O        -9.4154417906        2.1906226993        3.2672459164
 C        -7.0974160155        2.1117550539        2.3720544136
 C        -6.6316910200        3.6094871202        2.3689714847
 O        -7.4751047196        4.5090984125        2.5415918894
 C        -5.1538916632        4.0474593267        2.0209706410
 C        -5.8479719415        1.2445088942        2.7081736059
 C        -7.7601027685        1.7543172156        0.9717766532
 C        -5.6979704936        5.2443557089        6.8220071936
 C        -7.0371621945        3.9118617142        8.4775063389
 C       -12.3865220650        8.4465956639        5.2876204639
 C       -13.1816742779        6.6706775944        3.6187403111
 C        -8.2900202550        6.4599698143       -0.3304602041
 C        -9.8593240728        7.2188446302       -2.0673899689
 C       -12.0001970510        0.1482940431       -2.8272444909
 C        -9.4188428565       -0.1408590056       -3.3463651846
 C       -10.9129024000       -1.7221239321      -10.6797554714
 C       -10.7078566496        0.7476418716      -10.8726601904
 H       -14.5677365080        0.9191443856       -9.7213345965
 H       -13.7622943279        0.8026136462      -11.3776834107
 H       -13.0052293598        1.8781303290      -10.0764956783
 H       -12.1881867219        0.8905919776       -7.5429603797
 H       -10.6278387675        1.5768807140       -7.9621669657
 H        -9.4030608937        0.4572830644       -6.2570344786
 H       -10.6714680878       -0.7886499333       -6.0688998631
 H       -12.1269255346        2.8379450874       -1.7369793544
 H       -12.2266794226        3.1770687138       -3.4125556357
 H       -11.7854078640        5.4689261384       -2.4056812930
 H       -10.3194110284        5.0030715762       -3.0433997706
 H       -11.4319182270        8.5120972129       -0.5901552250
 H       -10.1054943958        9.0122720426        0.4402921977
 H       -12.8108768130        8.1453305180        1.6005489478
 H       -12.2389195581        9.7645684062        1.4328660829
 H       -10.1465787190        7.5009414483        6.4711985765
 H        -9.3679762283        8.1400061182        4.9158498951
 H        -7.5900428196        7.1750700314        6.2576289832
 H        -7.9910401799        6.2428014560        4.7027709543
 H        -9.2407725267        2.5745311081        5.9751449780
 H        -8.3028988530        1.6758567581        6.9963432506
 H        -8.7619406595        0.2321420332        5.1215512466
 H        -6.9400011859        0.8411961573        5.0563708148
 H        -4.7245066064        3.2906405443        1.2937744928
 H        -4.6515977245        4.0252530883        2.9751089678
 H        -5.2687636736        5.0259988599        1.5526422719
 H        -6.0948082668        0.2287148418        2.9976744505
 H        -5.3126293886        1.7050480429        3.5623639119
 H        -5.1113679738        1.1223798121        1.8248098393
 H        -8.0472625909        0.7156497851        0.9859567811
 H        -7.0217971310        1.9350877214        0.0907953404
 H        -8.5156378788        2.4582673918        0.8245806868
 H        -5.7896161778        5.9618772723        6.0131900646
 H        -4.9629399151        4.4714558311        6.5318086130
 H        -5.3396274438        5.7843219157        7.6369337986
 H        -6.3445461424        3.0477482581        8.5221837932
 H        -7.9825373912        3.5977084389        8.8812327290
 H        -6.7932829694        4.5725028362        9.2752304400
 H       -13.2816866964        8.9656754658        5.0908779177
 H       -11.7228901506        9.2825992327        5.4067404688
 H       -12.5150654551        7.9337337646        6.2002697236
 H       -13.0565147820        5.9029981283        2.8016153315
 H       -13.9133721556        7.3025914279        3.1657845447
 H       -13.5330450367        6.0487200119        4.4592289806
 H        -8.2153636451        7.5034551531        0.1298495869
 H        -7.6536516001        6.4210507306       -1.2373702363
 H        -7.9661408630        5.8589439426        0.4501191420
 H        -9.4119476055        6.5029707749       -2.8043938464
 H        -9.2328237108        8.1005439472       -1.9512383249
 H       -10.9290304998        7.4203468211       -2.4352721818
 H       -12.2741894951       -0.8210408579       -3.3745804819
 H       -12.8919715669        0.7708453990       -2.8821237403
 H       -11.7930926847       -0.1858430268       -1.8268391517
 H        -9.6253628524       -1.1546337811       -3.5965792960
 H        -8.9102149833        0.0409037442       -2.4044001411
 H        -8.6360173280        0.2532961345       -4.0525309088
 H       -11.4996666864       -2.5507395771      -10.3272107877
 H        -9.8077574727       -1.8377251340      -10.6019877899
 H       -11.3008555752       -1.5935866822      -11.6640631122
 H       -10.5477857670        1.7385769269      -10.5150409327
 H       -11.2378751804        1.0177619864      -11.8068859999
 H        -9.7743480202        0.4151508715      -11.3482631422
 Na       -9.8339737554        4.2525159255        2.2297567567
