117

 C        -8.8170023841       12.2504432929       -5.3418459744
 C        -8.8151029882       11.8137357407       -6.7415252685
 O        -7.8798771481       11.9340177042       -7.5257809923
 C       -10.2069564335       11.1260770714       -7.2471853976
 C       -10.5590660165        9.5321891457       -6.4933281652
 O       -11.0760201865        8.7585492262       -7.2612381069
 C       -10.1223056588        9.2884650561       -5.0513369268
 C        -8.6227385178        8.7612938980       -5.1323133020
 C        -8.0945152434        8.9476886615       -3.6877222280
 O        -8.8859722667        9.1782964792       -2.8058433532
 C        -6.5431936758        8.5253313540       -3.2414058664
 C        -6.7403913084        7.3306361926       -2.2087239905
 O        -5.7316484822        7.0113919366       -1.5856779155
 C        -8.0381273148        6.4559817746       -1.9397659883
 C        -7.6315417761        5.2636975439       -1.1585703241
 C        -8.8805167504        4.9671548778       -0.2493723093
 O       -10.0205831217        5.2631483929       -0.6049957313
 C        -8.4476633420        4.6236066867        1.1467355595
 C        -9.5315362066        4.0426420670        2.1666656705
 O       -10.5639284547        3.4723010290        1.8577345511
 C        -9.0826404727        4.0793383547        3.6729507713
 C        -8.7405368859        2.7345548911        4.1268316758
 C        -9.9020719973        1.9419196987        4.7191365017
 O       -11.0678590905        1.9772989500        4.3140048914
 C        -9.4754087235        0.8883900600        5.8456717146
 C        -8.4791438990       -0.1670286021        5.0729265310
 O        -7.4213660622        0.0862990189        4.6558019962
 C        -9.0261347301       -1.5699909679        4.9204208930
 C        -8.6599438945       -2.1752403448        3.4885006210
 C        -9.2496721566       -1.4639302978        2.3013893520
 O        -9.2981054698       -0.2291157301        2.2925507497
 C        -9.7809701443       -2.4624779253        1.2130301306
 C       -11.4639254298       -2.6178218133        1.3152415900
 O       -12.0853710113       -2.3608376267        0.3554799797
 C       -12.3884505385       -2.8300015966        2.6573906088
 C       -13.7174472674       -2.1408850888        2.5395386919
 C       -13.8054729709       -0.5682075687        2.3377881683
 O       -13.1370738780        0.1279601895        3.0096385513
 C       -14.6094699519        0.0266058771        1.1497156844
 C       -13.4963483932        0.3736462509        0.0085564279
 O       -12.3501481018        0.6788108735        0.2453667743
 C       -14.0249158055        0.5582385507       -1.3548531106
 C       -15.8723920020       -0.8351079473        0.8026054344
 C       -15.0550466758        1.4720495914        1.4474592654
 C        -9.3802464904       -1.8758197932       -0.2110023002
 C        -9.2762929299       -3.9078574759        1.3293081974
 C        -8.8003808382        1.5820297144        7.0357306836
 C       -10.6254941729        0.2143627338        6.5223018780
 C        -7.2947451089        3.5694785507        1.1155047047
 C        -7.8993966926        6.0144010014        1.6319950888
 C        -5.6480312227        8.0699596680       -4.4541080426
 C        -5.9044193562        9.6047546100       -2.3247879876
 C       -11.6102586374       11.7362219274       -6.8913852777
 C       -10.1385840721       10.8975643112       -8.8098452156
 H        -8.6423606659       11.3989387714       -4.5905277593
 H        -9.6479819490       12.7420379604       -4.9952443816
 H        -7.8828801199       12.8059068735       -5.1570782597
 H       -10.5993521290        8.4374718783       -4.6752561671
 H       -10.2569375941       10.0293630256       -4.3519342586
 H        -8.1310120412        9.3186988161       -5.9878928457
 H        -8.4360206999        7.7448161709       -5.5691309814
 H        -8.6189079761        6.2213551404       -2.8050686467
 H        -8.8722182864        6.9699492539       -1.3715647352
 H        -6.7076631961        5.5448458345       -0.6845565938
 H        -7.4286331633        4.3667309460       -1.8040997156
 H        -9.8102414162        4.4355857251        4.2422654750
 H        -8.2520524328        4.8149217046        3.7732359632
 H        -8.0973604277        2.9171735668        4.9955494332
 H        -8.2429034317        2.0287222073        3.4563629892
 H       -10.0668345344       -1.6936998471        5.2367022200
 H        -8.5340487906       -2.0526188255        5.7024970657
 H        -8.7962103526       -3.2137473967        3.4774943497
 H        -7.6591502797       -1.9402204345        3.3102044974
 H       -11.9457701969       -2.5759225609        3.5945629606
 H       -12.6072754004       -3.9300285343        2.7095361111
 H       -14.2425803958       -2.4177599650        3.5590155902
 H       -14.3335785236       -2.6038842227        1.7824630132
 H       -15.0693202748        0.6422952653       -1.3896636503
 H       -13.6798266695       -0.2953269661       -1.9847805466
 H       -13.6413516219        1.4565452249       -1.8475371752
 H       -15.8255140056       -1.9027721324        0.3732609348
 H       -16.4409020450       -0.3661691814       -0.0682706345
 H       -16.4675997190       -1.1504195773        1.6492063755
 H       -15.6978382154        1.5252088130        2.2592020569
 H       -15.6603984213        1.8091355509        0.5588697106
 H       -14.2496664975        2.2005553256        1.6516556857
 H        -9.4676979327       -0.7916645848       -0.2763924952
 H       -10.0116081664       -2.3607431410       -1.0296263396
 H        -8.3874458630       -2.1671495799       -0.4392893378
 H        -8.2022475478       -3.8561794572        1.6481572271
 H        -9.4922707583       -4.4771111843        0.4148254085
 H        -9.8469118635       -4.3848647262        2.0899616885
 H        -9.4373663681        2.4506120894        7.2703780990
 H        -7.8117041802        1.9484023960        6.9544395589
 H        -8.9131288361        0.8658496799        7.7992944010
 H       -10.3152554405       -0.6039258835        7.1426421006
 H       -11.3884692495       -0.3400775488        5.9862974566
 H       -11.0211201142        1.0747197575        7.1399688203
 H        -6.6944313573        3.8545602790        1.9451361617
 H        -6.6078667030        3.8345524646        0.3350923329
 H        -7.7852454140        2.5630719869        1.0833749743
 H        -7.0004539322        5.7397100788        2.2693602880
 H        -8.6262967215        6.7016455627        2.1698611370
 H        -7.6747165446        6.5874779903        0.7751674367
 H        -5.0914792838        8.9225651538       -4.7657113682
 H        -6.2187415969        8.1246512292       -5.4197840351
 H        -5.0509503782        7.2134742709       -4.2927332353
 H        -5.7362044996       10.5104805412       -2.9127581137
 H        -4.9305468677        9.1083432822       -2.1284138169
 H        -6.4998538766        9.8843507167       -1.4093769548
 H       -11.5945757261       12.8335561754       -6.8625446127
 H       -11.7815793869       11.4423273233       -5.8150559964
 H       -12.3893556346       11.3820922096       -7.5684801159
 H       -10.8953797303       11.4561949228       -9.3696677649
 H       -10.4017309803        9.8321916125       -8.8751070204
 H        -9.2046188363       11.1281221205       -9.2309444890
 Na      -11.2099021195        1.2301902899        2.2957380150
