117

 C        -8.5959962344       12.1094255493       -5.3826331881
 C        -8.8142475986       11.6992615849       -6.8142019948
 O        -7.9696474135       11.9923547797       -7.6348528278
 C       -10.1724659479       10.8970449622       -7.3505745316
 C       -10.3946748303        9.5285949063       -6.6849282750
 O       -10.9579399322        8.6009639590       -7.1936955457
 C       -10.0661691748        9.3059895326       -5.2880912710
 C        -8.5848102302        8.9146690273       -5.0771538152
 C        -8.0851992819        8.7369844153       -3.7001379166
 O        -8.7520119618        9.1683864292       -2.7625520784
 C        -6.6326480475        8.3770681695       -3.3159644781
 C        -6.6459021107        7.0668606740       -2.3651276567
 O        -5.6654373916        6.8905175662       -1.5324778998
 C        -7.9107385281        6.3859739278       -2.2063149595
 C        -7.7983041782        5.1523810641       -1.3217005470
 C        -8.9565476353        4.8793300356       -0.2775366220
 O       -10.1263957876        5.1675796691       -0.5231377932
 C        -8.3876520919        4.7210694141        1.2152654498
 C        -9.5294759418        4.2493532319        2.1787985768
 O       -10.5093676434        3.6720794128        1.7557761689
 C        -9.0795747315        4.2400570664        3.7220556570
 C        -8.6705313925        2.8276033862        4.2512934157
 C        -9.7614625790        1.9129224923        4.7467366765
 O       -10.8933732521        2.0152433948        4.2933296488
 C        -9.6039749657        0.9085165449        5.8887063074
 C        -8.5357993674       -0.1722078548        4.9983023179
 O        -7.5128932815        0.3838531405        4.6153954300
 C        -8.9236848834       -1.6198331357        4.8307980205
 C        -8.3921129744       -2.1833830210        3.4721247105
 C        -9.2508284791       -1.5416747452        2.4243598277
 O        -9.3614969485       -0.3109332297        2.3612694280
 C        -9.9473756535       -2.4179536163        1.3235430062
 C       -11.5696725975       -2.3447236316        1.3921739526
 O       -12.0794904143       -2.2246072789        0.2927313738
 C       -12.3461205141       -2.7405561071        2.6687473282
 C       -13.8644464643       -2.1975953162        2.7519429932
 C       -13.7698626457       -0.6973005234        2.3691995943
 O       -13.2104199620        0.0235542149        3.2478293471
 C       -14.4994055159        0.0744967834        1.2157597925
 C       -13.4904639500        0.3596888394        0.0361468336
 O       -12.4037003387        0.7792835596        0.3516317237
 C       -14.0317598824        0.4581115261       -1.4573450847
 C       -15.7464197360       -0.7498393766        0.9171485859
 C       -15.0294950690        1.4091619933        1.6967204766
 C        -9.6668800090       -1.8207459871       -0.0662508220
 C        -9.5614167277       -3.9131941769        1.3020852199
 C        -8.8152632413        1.6677558931        7.0120732463
 C       -10.9333833445        0.3302839203        6.3002734571
 C        -7.5387620854        3.4428322060        1.3662175943
 C        -7.8065230521        6.1566265877        1.6312611413
 C        -5.5945470923        8.0744668900       -4.4316708237
 C        -6.2107342150        9.5514861544       -2.4127946835
 C       -11.3442525685       11.8568942787       -6.7776040926
 C       -10.0818372271       10.8533818022       -8.8721927408
 H        -8.4794106007       11.3007091400       -4.6460035032
 H        -9.3419922345       12.7824417544       -4.9079889484
 H        -7.7029133426       12.5283964542       -5.3363399127
 H       -10.6290617799        8.4643154188       -4.8857607449
 H       -10.3815548606       10.1488396113       -4.7662281226
 H        -8.0556271527        9.5691759509       -5.8020269463
 H        -8.3996162130        8.0099774725       -5.5882001499
 H        -8.4816660945        6.2792977879       -3.1356802936
 H        -8.5390980232        7.1321449883       -1.7172430668
 H        -6.7677094566        5.2903267836       -0.8400813133
 H        -7.8324074513        4.2261931137       -1.9070058969
 H       -10.0865942031        4.5855786814        4.1814064963
 H        -8.3592337883        5.0053468781        3.9290102052
 H        -7.9630278931        2.9789563102        5.0971372733
 H        -8.1807152373        2.2432608014        3.4604377361
 H        -9.9849975797       -1.7281167066        4.9421304701
 H        -8.5284316129       -2.0171940773        5.7536405043
 H        -8.4741988201       -3.2665698017        3.4752460881
 H        -7.3782896853       -1.9097766166        3.2671695420
 H       -11.8666399238       -2.2708772986        3.5576814183
 H       -12.1631580598       -3.8202678737        2.7190141707
 H       -14.2892315489       -2.4139155278        3.7477623699
 H       -14.5181888773       -2.5750699399        2.0369017529
 H       -15.1340617717        0.4477715982       -1.6063066044
 H       -13.5459645667       -0.3700912725       -2.0586449078
 H       -13.6702928184        1.3808363033       -1.9216423395
 H       -15.6605777428       -1.7324274638        0.3454107951
 H       -16.3792945420       -0.2261346563        0.1577810809
 H       -16.3602806367       -1.1813784563        1.7431680683
 H       -15.5923823046        1.2034849586        2.6776578018
 H       -15.7460994353        1.8051104175        1.0331147029
 H       -14.2559514510        2.2149754905        1.9930344865
 H        -9.8331525395       -0.7023904203       -0.0687217563
 H       -10.2106047518       -2.2900799727       -0.8916929057
 H        -8.5767802280       -1.8936954212       -0.2668462520
 H        -8.5776274335       -3.9101120722        1.0039354235
 H       -10.1948738339       -4.4570434736        0.7459958472
 H        -9.6111236290       -4.3442791269        2.2765851490
 H        -9.0689796534        2.7381290494        7.0626716533
 H        -7.7466592041        1.5930817554        6.8606219079
 H        -9.1000338717        1.0894765356        7.8992402735
 H       -10.9333528550       -0.7268837510        6.6705901548
 H       -11.6049868787        0.1532830345        5.4796753178
 H       -11.3062441941        1.0026127918        6.9545460626
 H        -7.0735740867        3.5254264602        2.2847451558
 H        -6.7104843909        3.5944053420        0.6605977229
 H        -8.2950244212        2.5631068194        1.1406692105
 H        -6.7771432526        6.0362846032        2.0569696516
 H        -8.4904888477        6.6900680085        2.3349604740
 H        -7.9018132902        6.7949548641        0.7314523487
 H        -5.1168952606        9.0990594800       -4.6382826733
 H        -5.9238426897        7.9717191734       -5.4534977962
 H        -4.8342690898        7.3883825121       -4.0760730787
 H        -5.9395631693       10.4302773311       -3.0151188788
 H        -5.3659311611        9.1907836096       -1.7716352454
 H        -7.0740260988        9.7984072748       -1.8105125419
 H       -11.0007489182       12.9258341112       -6.4200071857
 H       -11.5930413567       11.4174279949       -5.7997807829
 H       -12.2301590212       11.9343205968       -7.4934121657
 H       -11.0087078226       11.2135197424       -9.3635293977
 H        -9.8377236483        9.8277789568       -9.2771463947
 H        -9.3288566431       11.6424213301       -9.1324351110
 Na      -11.1236314140        1.1051833081        2.1317856510
