117

 C        -8.2685147330       12.0571180975       -5.6041480171
 C        -8.6732132896       11.6640567365       -7.0430147490
 O        -7.8549936302       11.9423200947       -7.8847789447
 C       -10.0692363879       10.9381355930       -7.3052948442
 C       -10.1686616777        9.4799119334       -6.8394197191
 O       -10.6360385996        8.5769977206       -7.5328031801
 C        -9.8909762200        9.0877382410       -5.3552402249
 C        -8.3839563847        8.6659477968       -5.2046347851
 C        -8.0736153764        8.7808033272       -3.7127841925
 O        -8.9415277325        8.8416622224       -2.8835217504
 C        -6.6500429912        8.4131343956       -3.1118290947
 C        -6.6112503649        6.9882205873       -2.3220249319
 O        -5.6630722293        6.5145185504       -1.8152211678
 C        -7.9074530471        6.0380544161       -2.4464722035
 C        -8.0635679197        4.6782477182       -1.5568747629
 C        -9.0354727838        4.8223834042       -0.2433463083
 O       -10.2406051592        4.9624488131       -0.3552204550
 C        -8.4199603643        4.7954570833        1.1954321314
 C        -9.5397643971        4.2881118581        2.2372459760
 O       -10.5537090608        3.6800012046        1.9137786074
 C        -9.4349674438        4.4926541365        3.7481016912
 C        -8.7980057559        3.2729213264        4.4745652563
 C        -9.8425513456        2.2063652558        4.6480741754
 O       -10.8653651992        2.1844610529        3.9864991670
 C        -9.6276677539        1.0352004419        5.6395162522
 C        -8.6435895950        0.0847789951        4.9480225006
 O        -7.5358593323        0.4204328963        4.6765611004
 C        -8.7660407585       -1.5895644101        4.9942139275
 C        -8.4006384410       -2.0681914146        3.5784518027
 C        -9.4304551205       -1.5477286547        2.4583644042
 O        -9.5922031371       -0.3483145582        2.6044820572
 C       -10.1306200274       -2.3774652734        1.1758170981
 C       -11.7123632475       -2.2607258193        1.4376477087
 O       -12.4501450921       -1.8444085869        0.5956617450
 C       -12.3099905971       -2.5639939887        2.8658795814
 C       -13.7714056455       -2.2263927682        2.7163063240
 C       -13.7203207658       -0.6443673472        2.6305457922
 O       -13.0402868423        0.0061375671        3.3630517056
 C       -14.4597256915        0.0585322612        1.5056036871
 C       -13.5445667195        0.3913452159        0.2167866853
 O       -12.4761726617        0.9440245004        0.3582979913
 C       -14.0617536878        0.0783132043       -1.1839253588
 C       -15.6298987496       -0.7378963209        0.8883432096
 C       -14.9765816309        1.4467762310        2.2052046037
 C        -9.6011900116       -1.6458340680       -0.0774737238
 C       -10.0017232456       -3.9938550222        1.2627995044
 C        -8.9745714152        1.3544860514        7.0498948606
 C       -10.9331502869        0.3638803150        6.0572855753
 C        -7.2440579289        3.6978869757        1.1544763931
 C        -7.5699635464        6.1002389755        1.7289869929
 C        -5.7036736877        8.1494200233       -4.3635947061
 C        -5.9116371563        9.5806513035       -2.3124178421
 C       -11.0952409435       11.9435300313       -6.8141284147
 C       -10.2212804760       10.7949043883       -8.8423875194
 H        -8.3520959874       11.1317629332       -4.8714769178
 H        -9.0004565240       12.7492748350       -5.2239068956
 H        -7.2506184408       12.5131958327       -5.4154562196
 H       -10.4706117614        8.1526885009       -5.0986019864
 H       -10.1545641529        9.8977165048       -4.5730620523
 H        -7.8274097419        9.2263570777       -5.9867369502
 H        -8.4751852768        7.5429477099       -5.4789500592
 H        -7.7759987959        5.6366729867       -3.4638788132
 H        -8.9512962812        6.3972461231       -2.5289008186
 H        -7.1095230946        4.2918799118       -1.2730529731
 H        -8.7162409166        3.9736015837       -2.1446267479
 H       -10.3935839282        4.7678742003        4.0208326081
 H        -8.7254070440        5.3737686631        3.9918092438
 H        -8.6005401731        3.6864896194        5.4594852451
 H        -7.8881611109        2.9470005939        3.9474954239
 H        -9.7399533258       -1.9905448157        5.4414864324
 H        -7.9122832296       -1.9015321959        5.6646747882
 H        -8.0914890910       -3.1583536119        3.4980426290
 H        -7.4372932914       -1.4442355881        3.3904677636
 H       -11.8663172303       -1.9339562835        3.6384669512
 H       -12.2714848327       -3.6376307341        3.1293359246
 H       -14.2268470058       -2.5713528404        3.6945668818
 H       -14.2588329754       -2.8048567607        1.9053480401
 H       -15.1375256591        0.0742792008       -1.0968568129
 H       -13.6472390192       -0.8662190569       -1.5709617758
 H       -13.8179265808        0.9518240162       -1.8754081920
 H       -15.3402646816       -1.5861115511        0.3480155509
 H       -16.4351770389       -0.3034695797        0.3222015846
 H       -16.2399248117       -1.1860427312        1.6555527013
 H       -15.6462121739        1.2919738690        2.9573734753
 H       -15.4381902818        2.1596052451        1.4468681057
 H       -14.1700514155        1.9143923385        2.6900734426
 H        -9.9996064496       -0.6498463164       -0.1930065093
 H        -9.8967623027       -2.2162282193       -1.0096940003
 H        -8.5488428786       -1.3890798643        0.0122356798
 H        -9.0991107746       -4.4158766171        0.6691272030
 H       -10.9779835259       -4.4019274600        0.8358531928
 H        -9.9233525736       -4.4080848348        2.2603278441
 H        -9.4663065284        2.3195931180        7.3041831491
 H        -7.8700995802        1.5349390562        6.9860351731
 H        -9.1743541888        0.5221043700        7.7416521114
 H       -10.6899878412       -0.4970604585        6.6125867856
 H       -11.5249457028       -0.0694425309        5.2528710592
 H       -11.6041134173        1.0588169968        6.6762570320
 H        -6.6659126716        3.8053057269        2.0939870349
 H        -6.6040364165        3.9794626370        0.3545424880
 H        -7.7075527389        2.7687864513        1.0115864602
 H        -6.5498886084        5.8063919990        1.8084902720
 H        -7.9349672549        6.3983446802        2.6822970703
 H        -7.6853852645        6.9248005410        1.0756484755
 H        -5.7915964785        8.8022934144       -5.1985311259
 H        -6.0384736664        7.1649094326       -4.8089235863
 H        -4.6641791564        8.1078474180       -4.0005776201
 H        -6.0575970756       10.4698990106       -2.9789126511
 H        -4.8537836109        9.4191050321       -2.1531293970
 H        -6.4123796258        9.6526982023       -1.3094828462
 H       -10.8547916799       12.8222006806       -7.3009363298
 H       -11.0947384860       12.2670003208       -5.7682533376
 H       -11.9974430403       11.6230798642       -7.2509615749
 H       -10.9514729979        9.9907212293       -9.1260302120
 H        -9.2580610343       10.4055049176       -9.1896306962
 H       -10.5005047182       11.7200193126       -9.3292711766
 Na      -11.1305226267        1.2756053428        1.9750533493
