117

 C       -13.5325846627        0.9696959014      -10.2671499241
 C       -12.8115293288       -0.4080083135       -9.8796994916
 O       -13.3967429729       -1.2692256019       -9.2841063418
 C       -11.2257232198       -0.4143112356      -10.0210270239
 C       -10.5818388504       -0.3724383887       -8.5410424922
 O        -9.7391333051       -1.2037884205       -8.1948951473
 C       -11.0974440968        0.6247234252       -7.5094917530
 C       -10.4956911414        0.2908093612       -6.1011588556
 C       -11.1369881733        1.0889548533       -4.9954336303
 O       -11.9450208723        2.0186477724       -5.0992377747
 C       -10.7137252975        0.7918823544       -3.5153293518
 C       -10.3996786427        2.1958026455       -2.8203827413
 O        -9.2460602448        2.4263285783       -2.5852443658
 C       -11.6312904050        3.1687684842       -2.5106606512
 C       -11.1056816060        4.5848526538       -2.3726163789
 C       -10.4003756515        4.9494998169       -0.9970904438
 O       -10.4281656397        4.1546966701       -0.0400234462
 C        -9.8016611177        6.4102759902       -0.8513794084
 C       -10.6018644004        6.9228422385        0.5818158923
 O       -10.5244536102        6.3255864736        1.6210472904
 C       -11.1378378896        8.4067570029        0.5244697580
 C       -12.0696514612        8.6721344078        1.7006130740
 C       -11.2645549079        8.4595058500        2.9746930612
 O       -10.2479892900        9.1284933115        3.1613685982
 C       -11.8260848507        7.4804071571        4.0177853382
 C       -10.6525961570        6.5792293593        4.4631095298
 O       -10.5157092684        5.3710321581        4.2012305443
 C        -9.5987491671        7.2600892156        5.3354403527
 C        -8.2545856715        6.4879993616        5.6674030160
 C        -8.2234983182        5.4939539029        6.8212679422
 O        -9.2153729434        5.1929632307        7.4807683773
 C        -6.9766007904        4.5961465035        6.8981826255
 C        -7.1459965267        3.4900056349        5.9193897206
 O        -6.3222435194        3.3781449314        5.0052507842
 C        -8.3043219887        2.4067163027        6.0308561845
 C        -7.9218789839        1.2987971564        4.9530493792
 C        -8.2246709860        1.8401790838        3.5533956563
 O        -9.4024157380        2.1773268539        3.3950578553
 C        -7.1473280936        2.0460223231        2.4950176655
 C        -6.7540268657        3.5734806788        2.3011616686
 O        -7.5631661945        4.4326167711        2.4607787406
 C        -5.3265296009        4.0720159778        1.7763442683
 C        -5.8512030809        1.1845401529        2.6417148649
 C        -7.7910745190        1.5562788587        1.1297001000
 C        -5.5978168188        5.3719428481        6.6546461449
 C        -6.9107074695        4.0340935245        8.3538229083
 C       -12.3385031669        8.3543665009        5.2187059236
 C       -13.0466659997        6.7591598349        3.6530870800
 C        -8.3060460831        6.3637863242       -0.2888128480
 C        -9.8468936448        7.2230654123       -2.1091172139
 C       -11.8318274182        0.2235263541       -2.8109259496
 C        -9.4820159970       -0.1747999452       -3.4387261716
 C       -10.7964434872       -1.8120534468      -10.6024351804
 C       -10.6845432405        0.7828822960      -10.8199066529
 H       -14.6359941327        0.9266587622       -9.9747557877
 H       -13.4091232931        1.1130657155      -11.3423048280
 H       -12.9021029287        1.7173582612       -9.6543646821
 H       -12.1961952060        0.4979647862       -7.3888290520
 H       -10.9466791586        1.6656428102       -7.6807554105
 H        -9.3846334238        0.4529460711       -6.1612045564
 H       -10.6638699914       -0.7413873695       -6.0610296941
 H       -12.1373097492        2.8244267916       -1.6326700170
 H       -12.4172992589        2.9585780770       -3.2868035793
 H       -11.8604613529        5.3726231682       -2.4834518928
 H       -10.4147655541        4.9358004672       -3.2121160304
 H       -11.7300916216        8.3990510368       -0.4313973292
 H       -10.3664266950        9.1130813408        0.4403695775
 H       -13.0321001982        8.1576475323        1.6768680044
 H       -12.4063598080        9.7429247297        1.7346861625
 H       -10.0236297312        7.5753227779        6.2963404383
 H        -9.1761887591        8.1257392585        4.7956647248
 H        -7.4139311291        7.1944971540        5.9761512385
 H        -7.9604734507        5.9701620823        4.7281783492
 H        -9.2872393131        2.8453529422        5.7718313352
 H        -8.5540743920        1.8859969672        6.9635986776
 H        -8.5021394058        0.4007040173        5.1786377526
 H        -6.8376954271        1.1172563462        5.0510541409
 H        -4.8994439826        3.5843039820        0.9120535367
 H        -4.7516500055        3.9842682962        2.6537262906
 H        -5.6192350713        5.1103548297        1.5845155090
 H        -6.0282669060        0.1590605507        2.6306274118
 H        -5.4326936828        1.3706489063        3.6401697449
 H        -5.0431431315        1.4068036187        1.8852237628
 H        -7.4235248647        0.5964597708        0.9548741104
 H        -7.4251186315        2.2180608990        0.3187267483
 H        -8.8923138101        1.6351440465        1.1463830873
 H        -5.7177098219        6.1975737593        5.9071565623
 H        -4.7468866703        4.7093893578        6.4431673206
 H        -5.4262545162        5.9351166339        7.5367743129
 H        -6.0878010675        3.4487413119        8.5032052141
 H        -7.7870938429        3.4924615853        8.6613933618
 H        -6.9578847518        4.7350948692        9.1146932076
 H       -13.2832856073        8.8207283807        5.0905808587
 H       -11.6882726502        9.2512393728        5.3245232398
 H       -12.3750582034        7.7893511754        6.1131253816
 H       -13.0486435797        6.1702914388        2.6613059202
 H       -13.9314605285        7.4086319414        3.4852665927
 H       -13.1932319856        5.9909770558        4.4134540849
 H        -8.0141975779        7.2353639628        0.1975989048
 H        -7.6997002659        6.1355838696       -1.1254066715
 H        -8.1471623465        5.5721066237        0.4794287288
 H        -9.3066082386        6.6421279925       -2.9039701577
 H        -9.3601983387        8.1783553149       -1.8050333368
 H       -10.8344032961        7.3670812595       -2.4824970822
 H       -11.9852497166       -0.8044685107       -3.2039995398
 H       -12.8156242891        0.7578046836       -2.9911262123
 H       -11.6607801079        0.0678764265       -1.7387977614
 H        -9.8204081352       -1.1756768541       -3.7564204473
 H        -8.9695471531       -0.1276602878       -2.4658087663
 H        -8.6427395659        0.2044304328       -4.0535823637
 H       -11.6056740017       -2.4716055647      -10.5415877093
 H        -9.8624874952       -2.0670002582      -10.0768481385
 H       -10.6991598741       -1.7471678700      -11.7116827370
 H       -10.6005043823        1.7349732665      -10.2927930984
 H       -11.2833518482        1.1027854920      -11.6519136534
 H        -9.7457805207        0.6338739868      -11.3220698938
 Na       -9.7498329518        4.2706625202        2.2793474769
