117

 C        -7.9697464273       12.2455478560       -6.1665128866
 C        -8.3718914911       11.5237902379       -7.4572190342
 O        -7.4846147503       11.2836300622       -8.2192029477
 C        -9.9178181677       10.9348753896       -7.6372113658
 C        -9.7882668372        9.4308728016       -7.1807880817
 O        -9.6270168449        8.5778216503       -8.0528020711
 C        -9.6332279071        9.1914501858       -5.6551738408
 C        -8.3179569872        8.4268795087       -5.2046621132
 C        -8.1591494447        8.3518411286       -3.6989199871
 O        -8.9758466406        8.8550466459       -2.9647265141
 C        -6.7607127124        7.8015184490       -3.1093050636
 C        -6.8681916672        6.3665464479       -2.3847710520
 O        -5.8463008670        5.9602706523       -1.8004875736
 C        -8.0750514108        5.5138573271       -2.5340616119
 C        -8.0783490365        4.2538159273       -1.5548860351
 C        -8.8802493013        4.7178383735       -0.2341157608
 O       -10.0002292917        5.2210351610       -0.3658478366
 C        -8.1158960247        4.7122502744        1.2124070517
 C        -9.2071165252        4.1797786716        2.0989671071
 O        -9.6990244525        3.0975331020        1.6846306742
 C        -9.4414405422        4.7605783638        3.5377614485
 C        -9.0146986544        3.6367483123        4.5402107527
 C       -10.0935615310        2.4969917351        4.8578222855
 O       -11.2435203658        2.7175213022        4.4226580398
 C        -9.6986471085        1.0906775644        5.5846592147
 C        -8.3867875078        0.2300860846        4.7533363986
 O        -7.5660023501        0.8482508707        4.1638665581
 C        -8.4291055868       -1.3332170735        5.1289174115
 C        -8.8003448676       -2.1162443485        3.9039601932
 C        -9.5898048670       -1.4185167037        2.6398027300
 O        -9.8881605907       -0.2330845890        2.6073246455
 C       -10.2055859956       -2.3222745805        1.5565327254
 C       -11.7127929214       -2.1480625893        1.5960123157
 O       -12.3327319950       -1.6407924357        0.6952952261
 C       -12.5412466306       -2.8413557609        2.7618084716
 C       -13.6600154574       -1.9164827854        3.1643481338
 C       -13.5553763536       -0.4047219470        2.6562495931
 O       -12.6559785047        0.2182696610        3.0802596607
 C       -14.7345729446        0.2561515928        1.7628497183
 C       -14.0662454387        0.5827479890        0.3053984740
 O       -13.1764802845        1.4148922144        0.2355140968
 C       -14.5104743325       -0.3736060371       -0.7891961248
 C       -16.0474645152       -0.6165277418        1.7287364967
 C       -15.0164540053        1.5840939723        2.4457325643
 C        -9.7451909364       -1.6851131321        0.2524067188
 C        -9.6634225808       -3.7296443985        1.3779768594
 C        -9.0451087382        1.3953821823        7.0153137186
 C       -11.0426727118        0.3258245143        5.8631672370
 C        -6.8149389619        3.9072495005        1.3603456502
 C        -7.7194742201        6.1464165360        1.4039660821
 C        -5.6944906484        7.6985660017       -4.2886050368
 C        -6.1995575330        8.6827404449       -1.9959059410
 C       -10.9016973783       11.6911664380       -6.6648789929
 C       -10.3672230012       11.1723730877       -9.1466405502
 H        -8.5079502774       11.9224004522       -5.1812137335
 H        -8.0765225886       13.3761915290       -6.2583216896
 H        -6.9041371500       12.2111245082       -6.0529700383
 H       -10.6222584335        8.8104114334       -5.1832099819
 H        -9.4218754824       10.0509634839       -5.0272446094
 H        -7.5507777948        9.0614234092       -5.5387296577
 H        -8.4958806624        7.4697674422       -5.6760088195
 H        -8.2389589328        5.0463081524       -3.4950171924
 H        -8.9689138429        6.1614571024       -2.3519821801
 H        -7.0830068995        3.9155397522       -1.3238297447
 H        -8.8504119863        3.5268553894       -2.0015959794
 H       -10.4039181485        5.1603473363        3.8026275065
 H        -8.6128487188        5.6051004793        3.5999063321
 H        -9.0240999412        4.1617028168        5.5186740132
 H        -8.0292905496        3.1898258788        4.2113101239
 H        -9.3330697102       -1.4379759018        5.8462839012
 H        -7.4598576417       -1.6870898323        5.4686631349
 H        -9.2320946518       -3.1168934862        4.2244672894
 H        -7.8361282558       -2.4740163909        3.3965406964
 H       -11.9836341696       -3.1747406665        3.6153969541
 H       -13.0164660240       -3.5976792877        2.1098585120
 H       -13.6145005106       -1.7205213128        4.3211389072
 H       -14.5857914403       -2.3683307116        2.9942572157
 H       -14.7703600636        0.2070842018       -1.7036036439
 H       -15.4639642224       -0.8617247934       -0.4132707599
 H       -13.7508428884       -1.2035421510       -0.8755638996
 H       -15.9367101087       -1.5864257092        1.3482118158
 H       -16.8515674045       -0.2160160965        1.1955364785
 H       -16.6275141637       -0.5309610007        2.5294543497
 H       -15.3530364523        1.6391410789        3.4623589234
 H       -15.8011703883        2.0144114609        1.7882868121
 H       -14.1742755573        2.3379066347        2.2929911033
 H        -9.6132306114       -0.5872287981        0.2315132594
 H       -10.5632199108       -1.9663218233       -0.4980782862
 H        -8.7602537474       -2.0194662599        0.0488929589
 H        -8.5920924536       -3.7846839087        1.4280830858
 H        -9.8441378750       -4.0219498894        0.4099223030
 H       -10.0754585979       -4.4756745517        2.0436852405
 H        -9.9088177886        1.3350747992        7.6947659166
 H        -8.6356501609        2.4259517034        6.9546048619
 H        -8.2687405279        0.6692557095        7.2431656375
 H       -10.9114961793       -0.3711597408        6.6476809774
 H       -11.5180755025       -0.0854889121        5.0150473595
 H       -11.7593940209        1.0034611964        6.3089536295
 H        -6.6908255793        3.6449859502        2.3653149682
 H        -6.1598559264        4.6105856094        0.9101618272
 H        -6.8179360668        2.9233138162        0.7497895447
 H        -7.4364472702        6.5171829829        0.3942848689
 H        -6.8638817860        6.2164983129        2.1249119645
 H        -8.5363968764        6.7616386247        1.6177082771
 H        -5.0220848000        8.4972811890       -4.2095729764
 H        -6.1333330411        7.3863299183       -5.3059253207
 H        -5.0250826078        6.8913507973       -3.9837488569
 H        -5.6704755395        9.4130074798       -2.5730542392
 H        -5.4056438658        8.1526040731       -1.4588022442
 H        -6.9412800268        8.9961462573       -1.2666278946
 H       -11.4348109584       12.4733994301       -7.2675412100
 H       -10.5082861549       12.2380793984       -5.7406775848
 H       -11.6128697620       10.8694012341       -6.3592032863
 H       -11.0331100621       10.3927029763       -9.6581269562
 H        -9.4555076498       11.1354910734       -9.8244388729
 H       -10.7334151162       12.2050724539       -9.2896993241
 Na      -11.6559637267        1.9167423968        2.1335360106
