117

 C        -7.9549037988       12.3674799188       -6.3063833537
 C        -8.3519559886       11.4567150180       -7.4956400751
 O        -7.5315706586       11.0721605452       -8.3171758104
 C        -9.7854931285       11.0209032060       -7.6330179606
 C        -9.5422648830        9.5281164101       -7.1258118356
 O        -9.3688193227        8.6760336265       -7.9312926114
 C        -9.5288024803        9.1168460499       -5.6654154755
 C        -8.1488207795        8.2875723250       -5.3413496634
 C        -8.1549991153        8.3352134056       -3.8091842203
 O        -9.0987005193        8.8290871421       -3.1994503948
 C        -6.7319512651        7.7397553799       -3.0326025633
 C        -6.9092838207        6.2198496390       -2.4728551601
 O        -5.8941404475        5.8376960186       -1.8492860810
 C        -8.0631305017        5.2603469995       -2.8054303877
 C        -8.2479587152        4.2400597269       -1.6715707616
 C        -8.8106148359        4.7234164416       -0.3055023687
 O        -9.9131647414        5.1483920085       -0.1533379938
 C        -7.9582310832        4.7615260233        1.0671681311
 C        -9.0554776736        4.0134491100        2.1215806199
 O        -9.6610664110        2.9849079231        1.9376716359
 C        -9.4326398969        4.5226235280        3.5383681543
 C        -8.9238506167        3.4439052021        4.4146225423
 C       -10.0955174829        2.5063955152        4.7690966389
 O       -11.2878721739        2.7571669545        4.5269202395
 C        -9.7529710624        1.2518166439        5.5429519853
 C        -8.6513696079        0.4829674121        4.7647163207
 O        -7.7580120017        0.9749227306        4.1050531468
 C        -8.3953977097       -1.0273164070        4.9715063073
 C        -8.7785776339       -1.9790567428        3.8169145310
 C        -9.5644236704       -1.3025347637        2.7570381364
 O        -9.7706980621       -0.0965938461        2.8330700219
 C       -10.0891862386       -2.2894210797        1.5501865987
 C       -11.6710038591       -2.2798532888        1.5811843254
 O       -12.3031743216       -1.7697563194        0.6692736783
 C       -12.6479146674       -2.8752975361        2.7944127342
 C       -13.8377202365       -1.8812920499        3.2692794462
 C       -13.6754507015       -0.4510873671        2.7448879056
 O       -12.7059731689        0.1763032094        3.0941272291
 C       -14.7446001407        0.2857972178        1.8674227747
 C       -14.1755089603        0.5188803986        0.3671611268
 O       -13.3412437915        1.4125552544        0.1255454817
 C       -14.7056550705       -0.2960554795       -0.7831843145
 C       -16.0192150920       -0.4839209792        1.8267047291
 C       -15.0359930473        1.5905244306        2.6759519954
 C        -9.5596681764       -1.4954542849        0.2279408549
 C        -9.8538753941       -3.8362822330        1.4993723246
 C        -9.0200552684        1.5183473814        6.9417704216
 C       -10.9950402778        0.5149798231        5.9024803830
 C        -6.6639828817        3.9359111003        1.3005692352
 C        -7.7951998950        6.2479663254        1.5603703542
 C        -5.6841679298        7.5244855997       -4.1833488847
 C        -6.1459218143        8.6741654979       -2.0493885272
 C       -10.9123610459       11.8327379309       -6.8052561107
 C       -10.2851104279       11.0045051891       -9.0283948623
 H        -8.5319697626       12.1240748568       -5.5391625013
 H        -8.1465363081       13.5139544527       -6.5023807454
 H        -6.8910150590       12.4299063637       -5.9818282834
 H       -10.3660344833        8.3606374875       -5.6141338357
 H        -9.6444860102        9.6476998303       -4.7607072879
 H        -7.2218006504        8.8642349187       -5.7425363265
 H        -8.4902048610        7.3074223041       -5.7265148819
 H        -7.8928693317        4.5716446050       -3.6511118928
 H        -8.9452163443        5.9342722352       -3.0015017944
 H        -7.2354360474        3.9266501980       -1.4345780531
 H        -8.9327444195        3.4240495365       -1.9291491037
 H       -10.5269352358        4.5617533638        3.5570922286
 H        -9.0634628397        5.4281042294        3.7488544318
 H        -8.4913223001        3.7118297679        5.3941014767
 H        -8.2556987498        2.8989701546        3.7687016604
 H        -8.9188799161       -1.5195708424        5.8496318966
 H        -7.2958340299       -1.0429467228        4.9752829325
 H        -9.3008746805       -2.9032511506        4.2480131385
 H        -7.9334601767       -2.4773387236        3.2342515782
 H       -12.0813752802       -3.0087315946        3.6809860844
 H       -13.0630405825       -3.7732017186        2.3273878547
 H       -13.8233793614       -1.8355816134        4.4148007531
 H       -14.8637013663       -2.2700089777        3.0002118900
 H       -14.4746882273        0.3442208862       -1.6541270984
 H       -15.8308884548       -0.4161522417       -0.7685520237
 H       -14.2220690258       -1.2624010332       -0.6887565815
 H       -15.9425982067       -1.4098878609        1.3568220243
 H       -16.8580985755       -0.0399281285        1.4532102097
 H       -16.5157392611       -0.5471585122        2.7574396159
 H       -15.2369377340        1.3606970892        3.7472379282
 H       -15.9079167293        1.9630804986        2.3353519787
 H       -14.3343919971        2.4166158218        2.6402710806
 H        -9.8830370841       -0.3960008591        0.2331255053
 H        -9.9886023224       -1.9338616533       -0.6524425036
 H        -8.4513498398       -1.4247494991        0.2449584957
 H        -8.8835974921       -4.0879739178        1.0760477143
 H       -10.4935541695       -4.2756680811        0.7020185882
 H       -10.0056163349       -4.4449357132        2.4688861922
 H        -9.9363487303        1.8797856173        7.4524855810
 H        -8.2063268191        2.2425864466        6.8727472032
 H        -8.7156087749        0.5323208201        7.3679754771
 H       -10.6694581304       -0.2989571886        6.6210236036
 H       -11.5687022015        0.1775468935        5.0422227823
 H       -11.6607915729        1.0366325395        6.4803162638
 H        -6.2338599998        4.2351694036        2.1927013849
 H        -6.0899655972        4.0729118350        0.4195785023
 H        -6.9515802435        2.8668435996        1.4162417732
 H        -7.6458037177        6.9722977513        0.7863849488
 H        -6.9913172349        6.2503736933        2.2534609018
 H        -8.7015359266        6.5982833913        1.9816368012
 H        -5.2900177523        8.5507260026       -4.3244710753
 H        -6.0113616439        6.9365552753       -5.0172916421
 H        -4.8309651273        7.0541699837       -3.7375296033
 H        -5.8665701735        9.5829494011       -2.5615516879
 H        -5.1964032084        8.2774268935       -1.5682199574
 H        -6.8988156625        8.7495493382       -1.2596756799
 H       -10.9613293162       12.8738466836       -7.2137550425
 H       -10.7606391183       11.8424893942       -5.7403641086
 H       -11.8377104298       11.3067785543       -6.9539939507
 H       -11.2434670891       10.4855137128       -8.9607316600
 H        -9.7547071896       10.4567071367       -9.8538509678
 H       -10.4298941257       12.0403480665       -9.4218340048
 Na      -11.7744532028        2.0064064140        2.1003489008
