117

 C        -7.8593434344       12.5457296795       -6.4894173285
 C        -8.3204511074       11.5251538129       -7.5988282606
 O        -7.5144564809       10.9978195044       -8.3489739960
 C        -9.8160782588       10.9730936313       -7.6280177834
 C        -9.5019434338        9.4248768457       -7.1612302028
 O        -9.0885962444        8.6956503791       -8.0464257392
 C        -9.5481084238        9.0662830347       -5.7107187119
 C        -8.1673045930        8.3298580375       -5.3503027751
 C        -8.0221506824        8.2203965886       -3.8797751834
 O        -8.8691934795        8.5810485677       -3.0881778732
 C        -6.7561556484        7.6509890877       -3.1800135632
 C        -6.9280761006        6.1584549843       -2.5462960883
 O        -6.0877447542        5.7114975678       -1.8577503346
 C        -8.0525268257        5.1487410041       -2.8573864467
 C        -8.2895645479        4.1945636861       -1.6718481439
 C        -8.7238903338        4.8193733320       -0.2022930451
 O        -9.8877253588        5.0985495474       -0.1590938921
 C        -8.0544896375        4.6933900574        1.2411151709
 C        -9.0777524621        3.9439404726        2.0882191932
 O        -9.4727064259        2.8999268396        1.6581316580
 C        -9.3246490672        4.5349316784        3.4937722515
 C        -8.9738441909        3.5403851751        4.5522925896
 C       -10.1340356690        2.5664705675        4.8696702974
 O       -11.2447954781        2.7829013346        4.4763688055
 C        -9.7726251523        1.2759986486        5.6650249869
 C        -8.6785025006        0.5143541388        4.6561912558
 O        -7.8340300978        1.1779242363        4.0466594345
 C        -8.3503037600       -0.9512819202        5.0466200840
 C        -8.6889340303       -1.9924589004        3.8777045004
 C        -9.6368535601       -1.3755561529        2.8283016581
 O        -9.9152789637       -0.1905533335        2.8118072661
 C       -10.2056805045       -2.1442626253        1.5944043722
 C       -11.8582886291       -2.1008014542        1.5754590482
 O       -12.3882533306       -1.8224637505        0.5219984160
 C       -12.5518274167       -2.7580283576        2.8076385662
 C       -13.8046227808       -1.9567248567        3.1977880399
 C       -13.6861383039       -0.5099521058        2.7487002213
 O       -12.6269019584        0.0823071950        3.1330946805
 C       -14.8607040211        0.2560056616        2.0097286028
 C       -14.3040782943        0.5727978810        0.4942043125
 O       -13.4254250141        1.3908239830        0.3380883301
 C       -14.9041546591       -0.1911839571       -0.7578584156
 C       -16.1273566071       -0.4843324304        1.9024492112
 C       -15.0135808082        1.6620235347        2.7543768240
 C        -9.5990446388       -1.4726612798        0.3527407712
 C        -9.8679225425       -3.6006930336        1.7457448960
 C        -8.8883923923        1.7581844130        6.9039156227
 C       -11.0387100779        0.4507944549        5.8808674240
 C        -6.6007321610        3.9261985718        1.0959105692
 C        -7.9018600222        6.2006059650        1.6208917737
 C        -5.6097808465        7.3428502236       -4.1901770514
 C        -6.3306973987        8.6944292733       -2.0512711037
 C       -10.7746268284       11.9037481057       -6.7987997294
 C       -10.2029326166       10.8022493202       -9.0450531712
 H        -8.4487932834       12.1830673272       -5.6088572885
 H        -8.1018788301       13.5029829322       -6.6112912815
 H        -6.8171387087       12.6333621403       -6.1973506715
 H       -10.4066486711        8.5829065940       -5.4046943522
 H        -9.4426111897        9.8657711270       -4.9771921388
 H        -7.3449918625        9.0376691442       -5.7363267403
 H        -8.3221385725        7.3298461889       -5.7813109477
 H        -7.5604848033        4.5141208487       -3.6804837619
 H        -8.9944735748        5.5282114708       -3.2264723512
 H        -7.4455284110        3.5126028835       -1.4857917758
 H        -9.1542830664        3.6493781402       -1.7918727215
 H       -10.3697078695        4.8126769408        3.5053641153
 H        -8.7397777893        5.4416449974        3.5116541231
 H        -8.5642036030        3.8079937417        5.4996942349
 H        -8.3158589793        2.9477582644        3.9711441487
 H        -8.9599657340       -1.2472503255        5.8314732267
 H        -7.2403900544       -0.9698242854        5.2602347859
 H        -9.1951061974       -2.8531206426        4.3129178721
 H        -7.8921299910       -2.4551910054        3.3269318143
 H       -11.8357954044       -2.6426048473        3.6457858190
 H       -12.7514333981       -3.7698837856        2.5128321205
 H       -14.0512640137       -2.0459380993        4.2003289671
 H       -14.7137447837       -2.3716799476        2.6027470516
 H       -14.2380912606        0.1169837658       -1.5707085520
 H       -15.8608903099        0.1494109167       -1.0718837953
 H       -14.8781587594       -1.2182544966       -0.4518148586
 H       -16.1357804891       -1.3464665090        1.2633261695
 H       -17.0198669421        0.1030300118        1.6158566421
 H       -16.6777391519       -0.7658565245        2.8502038547
 H       -15.0736089130        1.3784500253        3.7767396025
 H       -15.9467945319        2.2495997606        2.5751382542
 H       -14.2413028885        2.3110326034        2.6759919841
 H       -10.0791414075       -0.5560013377        0.0380726357
 H        -9.5888041424       -2.1442237686       -0.4729694671
 H        -8.5351963012       -1.1574354916        0.6393857148
 H        -8.9206772596       -3.9088421796        1.1655378355
 H       -10.6158841590       -4.4015863579        1.3196506058
 H        -9.7273466069       -3.8497350898        2.8114123117
 H        -9.3830942477        2.6666509752        7.1759209975
 H        -7.8383760274        1.8482795310        6.6150473483
 H        -9.0346102973        1.0027324276        7.7025434964
 H       -10.8822730004       -0.5216259407        6.3797419322
 H       -11.5173743016        0.4167248278        4.8718684273
 H       -11.8467817234        0.8768112422        6.5354886929
 H        -5.7964188841        4.5805428279        1.6174383659
 H        -6.4625464426        3.8704583485        0.0281055213
 H        -6.5901210849        3.0351608352        1.5383343325
 H        -7.3953776827        6.7207396396        0.8534841221
 H        -7.2765649264        6.3013443068        2.4515668607
 H        -8.8552009228        6.7712230812        1.6978088792
 H        -5.5969504694        8.2217577899       -4.8464273834
 H        -5.6052212869        6.3860789184       -4.5784536341
 H        -4.6692166363        7.4671330760       -3.6320749590
 H        -6.2726714740        9.7870948640       -2.3772590829
 H        -5.3054495319        8.3611082161       -1.7290851448
 H        -7.0153355502        8.4785691848       -1.1965988140
 H       -10.2888770639       12.8285314362       -6.7708946193
 H       -10.9083116828       11.4739619448       -5.8208965280
 H       -11.7392770125       12.0473864475       -7.1812103453
 H       -11.2516932516       10.6076851935       -9.1027010951
 H        -9.7743698380        9.9555741245       -9.5008050887
 H        -9.9199054890       11.6047156774       -9.7350169243
 Na      -11.8187660189        2.0973797266        2.0735756826
