117

 C        -7.8353257697       12.7736342111       -6.9528766486
 C        -8.0163897958       11.5879192217       -7.9520461283
 O        -7.2276696237       10.9370564122       -8.5923954882
 C        -9.4878316653       10.9068638259       -7.7482417880
 C        -9.2279481681        9.4209072290       -7.2572537745
 O        -8.8271557111        8.4976527109       -7.9145193358
 C        -9.4351421494        9.1173130693       -5.6983143920
 C        -8.1991048544        8.3211273849       -5.3243236190
 C        -8.0404299336        7.8437200121       -3.8056496968
 O        -8.9883678999        8.0008787329       -3.0223529710
 C        -6.6960146666        7.2608763448       -3.2972016663
 C        -6.8762188249        5.8723375170       -2.4546594215
 O        -6.0885185161        5.6348765050       -1.4992894213
 C        -8.1967978817        5.2328461396       -2.5766305115
 C        -8.4523039382        4.0999178729       -1.6703666105
 C        -8.9610149948        4.7392169005       -0.4362475693
 O        -9.9960763525        5.3323828886       -0.4166041610
 C        -7.9549415963        4.7208265915        0.9594054331
 C        -8.8672643483        3.9330982176        1.9557736212
 O        -9.5169334419        2.9358282867        1.5350495517
 C        -9.4623798518        4.5831188557        3.2172928350
 C        -9.4205713307        4.0620123479        4.6966601800
 C       -10.0814830787        2.7330084212        4.7562049785
 O       -11.2115630554        2.5852847897        4.2337319891
 C        -9.5718913065        1.4736395225        5.5789742775
 C        -8.5608364239        0.5841675159        4.7668306016
 O        -7.7686726222        1.0172320407        3.9899671949
 C        -8.4526093813       -0.8894499823        5.0738957033
 C        -8.7787990320       -1.6831290240        3.8357271729
 C        -9.9146684907       -1.0864000987        2.9854234595
 O       -10.3596514490        0.0261036136        3.2042798214
 C       -10.2495491575       -2.1504920642        1.6165961792
 C       -11.7372426787       -2.3014426465        1.6015679659
 O       -12.3728930521       -1.8129320150        0.6807684184
 C       -12.5716487799       -2.6125636540        2.9971220144
 C       -13.9901304656       -2.1021931391        2.7607931546
 C       -13.8794662532       -0.5046167943        2.7748880643
 O       -12.8575663175        0.0539331377        2.9913171045
 C       -15.0247869773        0.3231044933        2.2770434546
 C       -14.4335533057        0.7106600624        0.8255851731
 O       -13.3785877438        1.3531154777        0.7666375918
 C       -15.1224656626        0.2492142516       -0.4533421802
 C       -16.3239775809       -0.4002214193        2.3202980049
 C       -15.2081219600        1.6967101764        2.9865597103
 C        -9.5951265571       -1.5431802699        0.2558571785
 C        -9.8007166955       -3.6780453907        1.8413949101
 C        -8.8908466507        1.8435406341        6.9885155408
 C       -10.7846123410        0.6398953337        5.9769537790
 C        -6.5369399183        4.0567152494        0.8517081304
 C        -7.6725499509        6.1743271948        1.2577991945
 C        -5.4662659253        7.2450769608       -4.2672040210
 C        -6.2091546031        8.2114595741       -2.1509380705
 C       -10.6685339943       11.4969519629       -6.8799802796
 C       -10.1044732069       10.9530384864       -9.1679146412
 H        -7.9089055035       12.6330502971       -5.9508302439
 H        -8.4633843947       13.7823440994       -7.2146642496
 H        -6.7775271541       13.1466323943       -7.0589849873
 H       -10.3016834632        8.3881088487       -5.4623022593
 H        -9.5718843152        9.8241650007       -4.9029317034
 H        -7.3789277698        8.9917669105       -5.4393052340
 H        -8.2014853816        7.6155713723       -6.1215392283
 H        -8.4675264649        5.2480291597       -3.5868946209
 H        -8.7973132636        6.0490997296       -2.0800335624
 H        -7.6438216921        3.4419226360       -1.3990888660
 H        -9.3296691085        3.3748059815       -1.9627404727
 H       -10.5972563369        4.6403763379        3.0161479453
 H        -9.1095077830        5.5751525413        3.2534972001
 H       -10.2909044152        4.6609645560        5.1027764131
 H        -8.4682642895        4.2520912690        5.2504895958
 H        -9.0314341014       -1.3172756302        5.9787498657
 H        -7.4232770102       -1.1260474183        5.2478408827
 H        -9.0274789351       -2.7296554643        4.0834717247
 H        -7.8811881465       -1.7184832537        3.2184149564
 H       -12.1390936497       -1.9960043793        3.7947252401
 H       -12.5758991834       -3.7137185339        3.3068477601
 H       -14.6480405724       -2.5008007099        3.5887282434
 H       -14.4235938560       -2.5006297713        1.9069884791
 H       -14.4934880607       -0.0915846490       -1.2938698649
 H       -15.4440278404        1.2570805486       -0.8519150851
 H       -15.9483846854       -0.4278278385       -0.1799576552
 H       -16.3572968693       -1.4666197223        1.9801368663
 H       -17.2630159776       -0.0733333569        1.9129223730
 H       -16.6751537266       -0.5650717226        3.3585719427
 H       -15.7327354747        1.5755260422        4.0231064184
 H       -15.8943568270        2.2846977716        2.4314066761
 H       -14.2702645346        2.3825850063        3.0967399616
 H       -10.2487150113       -0.7031805146       -0.0802166833
 H        -9.5315500035       -2.2903572086       -0.5631098954
 H        -8.5778330537       -1.2571165614        0.4311564129
 H        -8.8245401862       -3.7320621328        2.1301331799
 H        -9.7598860111       -4.1802563815        0.9624718901
 H       -10.4495060458       -4.3153360166        2.4521532263
 H        -8.5239957579        2.8630583718        7.0889413581
 H        -8.1705985493        1.0876388117        7.1070490529
 H        -9.6725114399        1.6554485726        7.6668280945
 H       -10.5147637954       -0.2043457571        6.6317188065
 H       -11.5366181235        0.4171069003        5.2503692850
 H       -11.3103762926        1.2326650682        6.6797077474
 H        -5.7812455395        4.7882866136        0.8873343784
 H        -6.4438469601        3.4070611077       -0.0729747947
 H        -6.4481951941        3.4348538950        1.8599676777
 H        -7.0899269075        6.6911349331        0.4056292340
 H        -7.0023034646        6.4318798394        2.1685698704
 H        -8.6130274824        6.7377134758        1.2392381479
 H        -5.7766926125        7.5518315882       -5.2710090786
 H        -5.2842738801        6.1314298852       -4.1535095820
 H        -4.5586946620        7.7036684243       -3.9135377825
 H        -6.0628528080        9.1929467117       -2.5954772813
 H        -5.2642917590        7.8944321602       -1.6068738013
 H        -7.1130288186        8.3437453370       -1.4813493483
 H       -10.3006597764       12.1997519958       -6.0585758800
 H       -11.3728498954       10.6857433564       -6.7272571836
 H       -11.2633391266       12.2767085139       -7.4922121590
 H       -11.1843577967       10.9371673900       -9.2096461151
 H        -9.7605172297       10.2258030003       -9.9206071059
 H        -9.8280508101       11.8385658410       -9.6945688488
 Na      -11.5301701299        2.0619300597        2.2028801598
