117

 C        -7.7580906952       13.0174865051       -7.4568866295
 C        -7.9561272516       11.5832721587       -7.9052460368
 O        -7.1793235057       11.0747647690       -8.6684725281
 C        -9.4215366747       10.7430226770       -7.8373749353
 C        -9.0498810141        9.3073874874       -7.2433185286
 O        -8.7877036345        8.4182916953       -8.0720399875
 C        -9.0684775577        9.0648393631       -5.7499000414
 C        -7.7807684787        8.2471242943       -5.2784113852
 C        -7.9889484016        7.8435161092       -3.8570890327
 O        -9.0552295374        7.6227578041       -3.3193376814
 C        -6.7403888297        7.3059432218       -3.1136633301
 C        -6.9427072451        5.9107042545       -2.4573030042
 O        -6.1519045274        5.4147202273       -1.7263074674
 C        -8.2744719690        5.0179951504       -2.8283600616
 C        -8.5696287906        3.9234529162       -1.6886461060
 C        -8.9034599410        4.7754195087       -0.4295213276
 O        -9.9745883125        5.4060898408       -0.2738291640
 C        -8.0149155260        4.7626931253        0.7475005534
 C        -9.0651114009        4.1226715541        1.8923526449
 O        -9.4059054646        2.9744618697        1.8541611420
 C        -9.7348125911        4.8303403063        3.0702095450
 C        -9.3480648820        4.0762747514        4.3915907230
 C       -10.0946517583        2.7550658842        4.6625173282
 O       -11.1875629646        2.5560411007        4.2156246892
 C        -9.4889800929        1.7225366509        5.7131834446
 C        -8.6377360544        0.8465178680        4.8894835344
 O        -7.8076613008        1.3633869368        4.1485876031
 C        -8.5115984285       -0.6688692324        5.1482257421
 C        -8.5110215899       -1.6540252921        3.9409211043
 C        -9.7831914911       -1.3302250189        2.9116008717
 O       -10.2210443400       -0.2103716359        3.0530787742
 C       -10.1968430182       -2.2489014949        1.7062826773
 C       -11.8693350067       -2.2519891003        1.6024937382
 O       -12.3716217210       -1.8123614108        0.6243101041
 C       -12.7698422342       -2.6377568550        2.7927675822
 C       -14.1796704246       -1.9874405580        2.8137594415
 C       -14.0701927842       -0.4770690833        2.9923342483
 O       -13.0817900547        0.1079645589        3.4565627847
 C       -15.1776007320        0.4490047244        2.4171779615
 C       -14.6214056972        0.8463601068        1.0302391616
 O       -13.5620332399        1.3858824315        0.9105137739
 C       -15.4328639506        0.7349131852       -0.2844054071
 C       -16.5721580159       -0.1602476714        2.3136674221
 C       -15.3128302615        1.6537587407        3.3657404050
 C        -9.7738944982       -1.4256829193        0.4424034060
 C        -9.5823723736       -3.6829812521        1.8568351185
 C        -8.7027794573        2.2257460190        6.9136048042
 C       -10.7513404522        0.8767681915        6.2456638375
 C        -6.8688894925        3.7141192446        0.8750337662
 C        -7.6915340987        6.1749029559        1.1123927990
 C        -5.6723122358        6.7202090949       -4.1692020325
 C        -5.9461810583        8.2892045207       -2.1704881449
 C       -10.3061749290       11.5759211644       -6.9085449127
 C        -9.8023053415       10.6014630565       -9.3563120312
 H        -7.7404944073       12.9461780923       -6.2962942856
 H        -8.5953892218       13.6103443836       -7.5939404123
 H        -6.9430493867       13.5550000386       -7.7454086650
 H        -9.9064391939        8.5601446478       -5.3282601536
 H        -9.0035546708       10.0358310936       -5.1753226200
 H        -6.7948255363        8.8364941149       -5.5103817274
 H        -7.7300856387        7.2344279323       -5.8905899574
 H        -8.0540816763        4.4212307519       -3.7733710463
 H        -9.1512990010        5.6235650914       -2.9588787166
 H        -7.6154395169        3.3598325970       -1.5749904766
 H        -9.2502086811        3.2029327951       -2.0610553572
 H       -10.7347390378        4.5935463780        3.0156286111
 H        -9.6956087967        5.9851438664        3.2757755412
 H        -9.5806675670        4.9066610803        5.0722249988
 H        -8.2747149103        3.8730634900        4.4655367390
 H        -9.2836846167       -1.0104891636        5.8142382737
 H        -7.5798940951       -0.8123506661        5.7961767322
 H        -8.5288782774       -2.7548153021        4.2373524487
 H        -7.5457619615       -1.4316557303        3.3866516096
 H       -12.2695114146       -2.3054360647        3.7353610566
 H       -12.8271547650       -3.7008344816        2.8577462842
 H       -14.7111590610       -2.4350457364        3.6705132468
 H       -14.8323540656       -2.3009854312        1.9186448771
 H       -14.8768142139       -0.0990000106       -0.7987481584
 H       -15.2181541500        1.6213994245       -0.8797708440
 H       -16.4891310717        0.3846301927       -0.1330016055
 H       -16.6883683312       -0.9764409434        1.6195933992
 H       -17.1459405464        0.5666772722        1.7624427474
 H       -17.1378583311       -0.6430613883        3.0721215201
 H       -15.7946934228        1.4586295360        4.2310681139
 H       -15.7967305601        2.5280853687        2.8598964699
 H       -14.3405484553        2.0079526352        3.5201380864
 H       -10.0516139652       -0.4255973712        0.7203233582
 H       -10.3900240648       -1.6902144411       -0.4409456537
 H        -8.7333167800       -1.6481580046        0.0757772437
 H        -8.5883536646       -3.7456391782        2.4152176941
 H        -9.3910301963       -4.2977799023        0.9334699746
 H       -10.3530841919       -4.2900869215        2.2861340162
 H        -7.6791493797        2.4230359579        6.5890987987
 H        -8.7751625683        1.3826148876        7.6399281347
 H        -9.1693918247        3.1805496412        7.2164763145
 H       -10.3946507275        0.3893429197        7.1023728045
 H       -10.9967270281        0.0940146388        5.5452824239
 H       -11.7555845875        1.3694308060        6.3505621583
 H        -6.1379422666        3.9012707651        0.0718096269
 H        -7.2948353877        2.7354893910        0.8228416673
 H        -6.3936478109        3.7878416233        1.8459050696
 H        -7.2381536103        6.7580349681        0.3703384357
 H        -7.0689995644        6.2870237207        1.9508022353
 H        -8.6585697910        6.6597268151        1.2926134543
 H        -6.3110019784        6.2588120764       -4.8807545831
 H        -4.9648524942        6.0050168820       -3.7771070440
 H        -5.1712426237        7.6165910269       -4.5578693224
 H        -5.4549013080        9.1577075976       -2.6805910341
 H        -5.1945730880        7.5744510014       -1.8184432228
 H        -6.5150671595        8.8419710419       -1.4147159630
 H       -10.3523143511       11.2980888467       -5.8946571884
 H       -11.2923236599       11.5646282148       -7.4389832830
 H       -10.0475028103       12.5930968419       -6.7568150847
 H       -10.4895064264        9.7267857611       -9.5167948308
 H        -8.9125851570       10.4344766921       -9.9667786943
 H       -10.3169924620       11.4091246069       -9.9533153610
 Na      -11.4122635389        1.5642676626        2.1136869256
