117

 C        -7.7719868157       13.0286074458       -7.5390691630
 C        -7.9526990817       11.5972766630       -8.1591840859
 O        -7.0002481877       11.0785787094       -8.6188520296
 C        -9.2791010635       10.8133127753       -7.9220136123
 C        -8.8568907701        9.3427537205       -7.3304157085
 O        -8.7991191887        8.3616398625       -8.0451572208
 C        -8.9040251564        9.2099629783       -5.8247499610
 C        -7.6459530659        8.3097922632       -5.3586070652
 C        -7.9092910280        7.7067394605       -3.9424370453
 O        -9.0107900217        7.8002528002       -3.4275000327
 C        -6.7237516796        7.0688209969       -3.1742624954
 C        -7.0926458022        5.7749652655       -2.4692194285
 O        -6.2019471707        5.3121753365       -1.7304168160
 C        -8.1757215163        4.8553215084       -2.9465115469
 C        -8.5585478811        4.0069655015       -1.6373995620
 C        -9.0973518831        4.7923607692       -0.4102126932
 O       -10.1580689507        5.3847133389       -0.5242651030
 C        -8.1787465012        4.6298024246        1.0781438315
 C        -9.2036967515        4.0053872362        2.0345990475
 O        -9.3874216413        2.7988274528        1.7785621116
 C        -9.7629264920        4.8026981846        3.1644099680
 C        -9.2094135950        4.0295768705        4.3712351258
 C       -10.1558941508        2.8696589185        4.7005327326
 O       -11.2482048351        2.7803851957        4.1072364176
 C        -9.5486162013        1.8173971532        5.7031311724
 C        -8.5614318270        0.8906567894        4.8783731516
 O        -7.7905563684        1.4802259470        4.1863292522
 C        -8.5067815920       -0.6616781701        5.1607965417
 C        -8.4785420781       -1.6115045380        3.9521343456
 C        -9.6698132282       -1.3528241890        3.0200846969
 O       -10.0555665623       -0.1953611296        3.0765088718
 C       -10.2339035061       -2.2605998707        1.7986013333
 C       -11.9031817040       -2.3081118242        1.5224428737
 O       -12.3820421425       -1.7755022641        0.5286453484
 C       -12.7800144189       -2.6169229370        2.8285416199
 C       -14.1589740972       -2.0045855019        2.8751864822
 C       -14.1391701653       -0.4638048356        3.0880143017
 O       -13.2295913301        0.0414623870        3.7087888041
 C       -15.2198886790        0.5373109645        2.4127514774
 C       -14.6237738907        1.0156970240        1.0871729836
 O       -13.5303262998        1.5174981066        1.0299072634
 C       -15.6106542243        0.9078328514       -0.1663584910
 C       -16.6570137421       -0.1539148749        2.2717892351
 C       -15.2875033987        1.7078447565        3.4070237667
 C        -9.7068746678       -1.4533665765        0.5193353217
 C        -9.6751196432       -3.6971250343        1.7405520876
 C        -8.6855657998        2.5926161231        6.7730372868
 C       -10.7619579729        1.0250687952        6.4475268479
 C        -6.9732176881        3.6339453631        0.9412836783
 C        -7.5605511667        6.0808431443        1.2926185381
 C        -5.5431223051        6.5260470954       -4.1921328269
 C        -6.0769610675        8.1893476999       -2.3201312034
 C       -10.3233617086       11.5937121870       -7.0258471197
 C        -9.8046639738       10.4477362760       -9.2413513113
 H        -7.9020674535       13.0327520044       -6.5132608193
 H        -8.5511033149       13.8261831584       -7.8688822233
 H        -6.8169755913       13.4594687968       -7.7392871228
 H        -9.8058013930        8.6977389996       -5.5109333227
 H        -8.8657206346       10.1062544748       -5.2258993137
 H        -6.7656386681        8.9030443866       -5.4603368215
 H        -7.4885093804        7.4426849352       -6.0895564661
 H        -7.7443349506        4.0780791038       -3.6171798787
 H        -8.9999584574        5.4095694334       -3.4282940076
 H        -7.7231248035        3.4327731737       -1.4698696950
 H        -9.2424731658        3.2459362168       -2.0245580427
 H       -10.8556641115        4.7723772670        3.3176933807
 H        -9.4566519574        5.8762207966        3.2342205399
 H        -9.1304607873        4.8518314249        5.0735238060
 H        -8.1759274377        3.6720311960        4.2546231523
 H        -9.2731517248       -0.9819692826        5.9042351379
 H        -7.6193023057       -0.8118062761        5.7255455356
 H        -8.4005700382       -2.6617087847        4.1140101303
 H        -7.6198085802       -1.2543724552        3.4257576413
 H       -12.1579057878       -2.2917517648        3.6932570669
 H       -12.8712183822       -3.6918936052        2.9353924913
 H       -14.7265953123       -2.4778776991        3.6946599785
 H       -14.6502433951       -2.3008010589        2.0508034882
 H       -15.5438421610       -0.0648293062       -0.5952197987
 H       -15.2879084251        1.6661821335       -0.8672978383
 H       -16.6291062790        1.0393044101        0.2147008380
 H       -16.8444333287       -0.8361461137        1.3485477031
 H       -17.3793063002        0.6278692534        1.9567263460
 H       -17.0444955995       -0.8892001531        2.9224975216
 H       -15.6094964390        1.3853518125        4.3728630643
 H       -15.8538008496        2.5058643405        3.0753476857
 H       -14.2620930968        2.1181076807        3.4562244038
 H        -9.7505517327       -0.4336197300        0.8183698626
 H       -10.3581020608       -1.5681862724       -0.4027044080
 H        -8.8077124268       -1.8456803164        0.1954916950
 H        -8.5559351295       -3.6912903831        1.7468305714
 H        -9.9667073013       -4.3032269461        0.8549584721
 H       -10.1425300581       -4.4105569522        2.5503521806
 H        -7.6359745127        2.5314874701        6.3873383395
 H        -8.7825044508        2.0128704994        7.7074618829
 H        -8.9276105549        3.6442571520        6.7871588988
 H       -10.2534374440        0.3708834388        7.1811524900
 H       -11.3645225886        0.3325351824        5.8110268243
 H       -11.5463187054        1.7287346554        6.8333829760
 H        -6.6101188139        3.7529513951        0.0009017518
 H        -7.1589091888        2.5886983790        1.2388887170
 H        -6.1204112030        3.9899276710        1.6776213373
 H        -6.8570688422        6.2731839019        0.4951404040
 H        -7.0657097903        6.3713787642        2.2078315789
 H        -8.2904971223        6.7818380712        1.1507863053
 H        -5.6932527346        5.4978551775       -4.3641803226
 H        -4.5121637109        6.5989515913       -3.6784610689
 H        -5.5303929201        7.2161606619       -4.9738032186
 H        -5.7150158629        9.0305191590       -2.9590050826
 H        -5.2286611187        7.7929612684       -1.7292566929
 H        -6.8303245570        8.8259998956       -1.7982837248
 H       -10.6120896421       11.1893327080       -6.0881225799
 H       -11.1592708036       11.7121296228       -7.6486089997
 H        -9.9731835744       12.5350059777       -6.7458824430
 H       -10.3537871506        9.5013535532       -9.1531840855
 H        -9.0154278474       10.3153161497       -9.9800533585
 H       -10.4853403394       11.0535749716       -9.7666258000
 Na      -11.4658146626        1.3024341394        2.0519159490
