117

 C        -7.7781624464       13.0538512812       -7.6538158184
 C        -7.7909317849       11.5453400994       -8.1360995712
 O        -6.7626005441       11.0894771055       -8.6664748267
 C        -9.2000489882       10.7407145295       -8.0534757336
 C        -8.9113022539        9.4325730523       -7.2992223527
 O        -8.7137277546        8.4687100961       -7.9609114224
 C        -8.6457186129        9.3764173990       -5.7906993299
 C        -7.5560938295        8.3603207275       -5.4099933619
 C        -7.8684798922        7.6316709548       -4.1402271140
 O        -8.8832915892        7.9044133609       -3.5153983465
 C        -6.5766095541        6.9226993629       -3.4693934559
 C        -6.9785622626        5.5613997877       -2.4611882323
 O        -6.2331697082        5.2467936225       -1.5171356903
 C        -8.1920690193        4.7417793019       -2.8134188244
 C        -8.6696505543        3.8567139816       -1.6306256298
 C        -9.1179313444        4.6747482370       -0.5074152766
 O       -10.0999854830        5.3482657248       -0.5008344925
 C        -8.3275998192        4.5480511611        0.8832673074
 C        -9.3110115001        3.8888999274        1.9466771686
 O        -9.6573041787        2.7030230608        1.7500903667
 C        -9.7212191507        4.7764046632        3.1173389663
 C        -9.2594393928        4.0511490271        4.4556131124
 C       -10.1921678034        2.9515325104        4.7778015133
 O       -11.2428602984        2.8325850922        4.0975307721
 C        -9.6048562835        1.9434447544        5.7573664107
 C        -8.5351621021        0.8659796473        4.8875939514
 O        -7.7083172577        1.3817339928        4.1850578923
 C        -8.4802796791       -0.6381455483        5.1151653285
 C        -8.4632568540       -1.6051665731        3.8968652870
 C        -9.6467546277       -1.2716954292        2.9760551221
 O       -10.1558291234       -0.1658287536        3.0805773234
 C       -10.2016180561       -2.0795596605        1.8305353884
 C       -11.7995134261       -1.9155759709        1.7533918907
 O       -12.3543600915       -1.9300965262        0.6707393405
 C       -12.6993900701       -2.5507341990        2.8347130220
 C       -14.1343499957       -1.9942937612        2.8033099132
 C       -14.1481124895       -0.4819556088        3.1068277739
 O       -13.3246983000       -0.0880512498        3.8827165128
 C       -15.1900161912        0.5404733173        2.5124546557
 C       -14.7469050503        1.1923944625        1.1583770877
 O       -13.5562328507        1.5925659307        1.0189631364
 C       -15.6106227323        1.2211462695       -0.0703599121
 C       -16.5649407810       -0.1843943988        2.3945852836
 C       -15.3606550775        1.7749046313        3.4218984546
 C        -9.5342472015       -1.5337500305        0.5195859332
 C        -9.8835247352       -3.6108748417        1.7125155294
 C        -8.7366308271        2.7876354582        6.7372997183
 C       -10.7264674318        1.2709729577        6.5670445666
 C        -7.0634821675        3.6520554111        0.9210518986
 C        -7.6552574844        5.9119152769        1.4710950581
 C        -5.4286964244        6.4289377848       -4.3488761557
 C        -6.2500533298        8.0311493963       -2.4520767843
 C       -10.3558939715       11.4579670335       -7.2169335722
 C        -9.9510722178       10.3812891856       -9.4234886302
 H        -8.1124153280       13.4469700551       -6.7242961226
 H        -8.4217599036       13.6041416499       -8.3651112190
 H        -6.7259538492       13.5078371839       -7.9140346230
 H        -9.5729715151        8.9326958606       -5.3409106081
 H        -8.4752626390       10.2583201983       -5.1844447647
 H        -6.6218285531        8.8914284891       -5.3263463846
 H        -7.3229691763        7.7226625420       -6.1806340406
 H        -8.0211479586        4.0806506160       -3.6391933912
 H        -9.0069443379        5.4760847650       -3.0322136115
 H        -8.0277187285        3.0034061106       -1.4484761694
 H        -9.4992788416        3.3453669837       -2.1807230981
 H       -10.8785655435        4.9866112971        3.0852479034
 H        -9.2967872637        5.6935769006        3.0860089102
 H        -9.0399658425        4.8188299128        5.2205153853
 H        -8.2341236835        3.6155941017        4.2725006759
 H        -9.2759043448       -1.0292358302        5.7918005421
 H        -7.6611800685       -0.8049481573        5.7614666438
 H        -8.6682759340       -2.5800113082        4.1876181758
 H        -7.5702555592       -1.5794975412        3.3646649598
 H       -12.2437479552       -2.4640832354        3.7960581422
 H       -12.5978882539       -3.6579099538        2.5779044116
 H       -14.7378688847       -2.4320540947        3.5533316413
 H       -14.6055363050       -2.2807863765        1.8774974663
 H       -16.0734578656        0.2501930651       -0.2252545316
 H       -14.9403852702        1.5961415048       -0.8559362305
 H       -16.3845025128        1.9276333540        0.1078081446
 H       -16.8482868120       -0.9130006087        1.6183808406
 H       -17.4071748820        0.5064010939        2.2465961365
 H       -16.7438145701       -0.9403704491        3.2137898859
 H       -15.6123071278        1.5293462183        4.5317977800
 H       -16.1272538734        2.3840665170        2.9983102022
 H       -14.4720922554        2.4060739001        3.3616418338
 H        -9.6118963210       -0.4484741712        0.5894935501
 H        -9.9435093996       -1.9243504821       -0.3665506957
 H        -8.5520411021       -1.9424861715        0.5212211030
 H        -8.8875525488       -3.6823720605        1.2979106383
 H       -10.5259728388       -4.2948708593        1.1326635672
 H        -9.8846562244       -4.1770960260        2.6765772944
 H        -7.8293041073        2.9048271190        6.1418465550
 H        -8.5238263887        2.2195998388        7.6209673870
 H        -9.1566962202        3.7761923074        6.9399391003
 H       -10.4301082458        0.2735509564        7.0781060220
 H       -11.6348737609        1.0452946315        5.9361404315
 H       -11.1031400752        2.0439215160        7.2063151015
 H        -6.4181354082        3.8247762082       -0.0186891521
 H        -7.3616496221        2.5591216501        1.0865110866
 H        -6.4939246038        3.8261788716        1.8211633154
 H        -6.6857127405        6.0303383843        0.9723884749
 H        -7.4171094397        5.8662490513        2.5419967595
 H        -8.1066474873        6.9100592509        1.3856395340
 H        -5.1898439531        5.4047819331       -3.9671263870
 H        -4.6006925128        6.9254290296       -3.8968878574
 H        -5.4198883847        6.7365406674       -5.3926714382
 H        -5.9758898790        9.0153160812       -2.8140851526
 H        -5.5536957965        7.7456767829       -1.6132977043
 H        -7.2560926069        8.3903163618       -2.1721025032
 H       -10.7663484429       10.7666164387       -6.4460043023
 H       -11.1427150298       11.7258686879       -7.8193760413
 H        -9.9503398047       12.2775299868       -6.6273411113
 H       -10.7954825513        9.7992136352       -9.2636669909
 H        -9.4211744594       10.0213262283      -10.2795241074
 H       -10.3740496581       11.2601443555       -9.8240764982
 Na      -11.5171480967        1.1510182074        2.1169063355
