117

 C        -7.8083576336       13.0192956761       -7.9061642834
 C        -7.8390081506       11.6378661793       -8.3354775768
 O        -6.8087664852       11.0026594482       -8.6032659202
 C        -9.1863194176       10.7870056871       -8.0978788431
 C        -8.7715360589        9.4235093653       -7.3993429891
 O        -8.5951147370        8.3380853270       -7.9356426474
 C        -8.4132711145        9.5641236735       -5.8530945248
 C        -7.4412918670        8.4573519128       -5.5203179989
 C        -7.6871832824        7.5276178675       -4.2758321762
 O        -8.6964474265        7.7348145793       -3.6354438419
 C        -6.5663281645        6.6680395953       -3.4223918575
 C        -6.9307838468        5.4585879915       -2.4876782612
 O        -6.2732051179        5.3907375927       -1.5110080467
 C        -8.3017845340        4.7172671538       -2.8054001749
 C        -8.8110004900        3.6631815823       -1.7252161291
 C        -9.0968377733        4.5713961398       -0.4615487025
 O       -10.0035225901        5.3694040893       -0.4313400832
 C        -8.2143731923        4.3686829775        0.9502501129
 C        -9.3799226306        3.8937937462        1.7847818621
 O        -9.9992608153        2.8455907577        1.6819404868
 C        -9.8755026023        4.7395821996        2.9283488228
 C        -9.3311868921        4.2191937416        4.3349079546
 C       -10.1163798025        2.9066065028        4.6030981134
 O       -11.2464735716        2.6620863390        4.2535561949
 C        -9.5403767539        2.0086257019        5.7710806514
 C        -8.6076725100        0.9181192857        4.9593535717
 O        -7.7260101143        1.3599824610        4.2234860755
 C        -8.5992932235       -0.6658923266        5.2562050177
 C        -8.5242411103       -1.5445773328        3.9358368061
 C        -9.6976288002       -1.1182448495        2.9394524902
 O       -10.2362853433       -0.0826889143        3.2654721526
 C       -10.0816668210       -2.0152296761        1.7026342981
 C       -11.7342607218       -2.0598889534        1.7074301876
 O       -12.2323941590       -1.7721244012        0.6805753341
 C       -12.6634983589       -2.4638436214        3.0059609046
 C       -14.0621304706       -1.8873374083        2.7077179997
 C       -14.1029861690       -0.4287153148        3.1893641625
 O       -13.3016547524       -0.0547893425        4.0256034456
 C       -15.1987447193        0.5363230487        2.5944325748
 C       -14.6999934738        1.1551012870        1.1232372969
 O       -13.5622076362        1.6311999146        1.0994430684
 C       -15.6799606819        1.5445542035        0.0084507845
 C       -16.4956509165       -0.2223754970        2.5120136862
 C       -15.3984279375        1.7749456641        3.5101250233
 C        -9.4516548362       -1.4465253307        0.3949072310
 C       -10.0688723088       -3.5786107781        1.9704055804
 C        -8.6278659549        2.6980077141        6.8721343624
 C       -10.6996258991        1.3584662681        6.6188295715
 C        -7.0864323560        3.3762177228        0.8189579140
 C        -7.8909305436        5.7418336923        1.4128627974
 C        -5.4080346764        6.4073399697       -4.4241063449
 C        -6.2290441920        7.7778821961       -2.4007810383
 C       -10.3172990637       11.4860418307       -7.2996226372
 C        -9.8041507035       10.4244220311       -9.5193436767
 H        -8.3134946928       13.0458030051       -6.7979928112
 H        -8.3779931653       13.7364720341       -8.3846896662
 H        -6.7993328231       13.3777133318       -7.8480405938
 H        -9.3033589031        9.4473793603       -5.2080388941
 H        -8.0273631545       10.6273986220       -5.6402035165
 H        -6.3975734222        8.8877127724       -5.6868574829
 H        -7.4058975136        7.8296588707       -6.3540382192
 H        -8.2065403235        4.2756642934       -3.7879526702
 H        -9.0348005323        5.5106228686       -2.8074539675
 H        -8.0809158147        2.7613567907       -1.6352755840
 H        -9.6593988493        3.1370503188       -2.1669392999
 H       -10.9506095527        4.6130993659        2.9050000045
 H        -9.7382427670        5.8520086932        2.8141992201
 H        -9.6164059350        4.8840506362        5.2177252665
 H        -8.2155743921        4.2948644742        4.3616893353
 H        -9.3320141047       -1.1074756496        5.8889229421
 H        -7.7238713510       -0.8414578540        5.9755989993
 H        -8.5485517187       -2.6074343520        4.1933403708
 H        -7.5771243233       -1.3218020131        3.4212525606
 H       -12.2314882222       -1.9347739893        3.8722391557
 H       -12.5485086754       -3.5466329129        3.2368101686
 H       -14.9008467307       -2.3965184487        3.1519690097
 H       -14.2495215566       -1.9685296703        1.5368709991
 H       -16.6178232666        0.9389820643        0.1125578272
 H       -15.1279393649        1.5655387455       -0.9561569923
 H       -15.9045216318        2.5930211842        0.3148871618
 H       -16.5713112971       -1.0992289832        1.9647930996
 H       -17.3930971425        0.2791559989        2.2190189218
 H       -16.6034178946       -0.7608612193        3.4833122082
 H       -15.6092222363        1.4284789753        4.5270527695
 H       -16.3355577747        2.4103930253        3.1263259842
 H       -14.5459445167        2.4633612135        3.5221685199
 H        -9.9383658294       -0.4900258161        0.2824051548
 H        -9.5168318342       -2.0955363723       -0.4150127868
 H        -8.3220451508       -1.4047838151        0.5632315775
 H        -9.2105604924       -4.0936563907        1.5522415841
 H       -10.9062049858       -4.0947593089        1.5589397195
 H       -10.0943806292       -3.8266168142        2.9487534198
 H        -8.0181290526        3.4576175199        6.4827682881
 H        -7.9838356610        1.9649126272        7.3556141892
 H        -9.3526569021        3.1365847544        7.5657152566
 H       -10.6421325146        0.3129840852        6.8944763631
 H       -11.6112243557        1.4689671832        6.0372622328
 H       -10.8886521651        2.0971191008        7.3919880195
 H        -6.1767847926        3.8528796682        0.2703672559
 H        -7.5717302180        2.5638387929        0.1943372292
 H        -6.8360907841        2.7925869813        1.6549753230
 H        -7.1498522678        6.3137815710        0.8297634436
 H        -7.5543969277        5.8318008244        2.4899414157
 H        -8.8270324820        6.4407315354        1.4132079391
 H        -4.7654491791        5.5902733215       -4.0609575281
 H        -4.7746301576        7.2385955308       -4.3670866426
 H        -5.8176099036        6.4591931160       -5.4830503122
 H        -6.0985373707        8.6837006435       -3.0347414369
 H        -5.2901647452        7.5488456682       -1.8550343638
 H        -7.0266406849        8.2519482204       -1.8671182595
 H       -11.1042647510       10.7096169241       -7.0364551523
 H       -10.8802317795       12.2757336944       -7.9193851064
 H        -9.8766232961       11.8496243894       -6.3452348302
 H       -10.8165596064       10.1749775197       -9.6463659256
 H        -9.2179645041        9.7267799397      -10.0379798723
 H        -9.7117375835       11.2558945982      -10.2269590244
 Na      -11.6739725386        1.1875433998        2.2711825717
