117

 C       -13.4828463939        0.8476494152      -10.1867244357
 C       -12.7769319089       -0.4142173062       -9.7410039683
 O       -13.4104876608       -1.3211238358       -9.2538625828
 C       -11.2032992197       -0.4497405062       -9.9867719159
 C       -10.6014489182       -0.3688987186       -8.5485603702
 O        -9.5894963495       -1.0250758987       -8.2906940896
 C       -11.1808169581        0.5819376985       -7.4705598319
 C       -10.5888178084        0.3723502405       -6.0798841257
 C       -11.1996015153        1.1361866696       -4.9840914565
 O       -12.1289287128        1.8840593345       -5.1115179695
 C       -10.7102511512        0.7951686544       -3.3904888515
 C       -10.2937067358        2.1436535864       -2.7402119301
 O        -9.1721333972        2.5248459225       -2.4735967023
 C       -11.4329716296        3.0196560196       -2.3951595073
 C       -11.0778393840        4.4748150097       -2.3438993410
 C       -10.5042123183        4.8974595067       -1.0013487696
 O       -10.5541014402        4.1318775650       -0.0774434169
 C        -9.7960681399        6.3925628573       -0.7495170796
 C       -10.5794945141        6.9997166906        0.4409664866
 O       -10.5947921156        6.4666729170        1.5263562111
 C       -11.3629315094        8.3820275133        0.3991891576
 C       -12.2443647829        8.6809530492        1.6734250222
 C       -11.3664524719        8.4460487733        2.9700740383
 O       -10.3037705910        8.9833766214        3.0768211348
 C       -11.8253630165        7.4423850782        4.1413229983
 C       -10.5527910987        6.5895234244        4.4778160592
 O       -10.5968473834        5.4334749728        4.1438017225
 C        -9.4551128012        7.3155885614        5.3210858432
 C        -8.1465581513        6.5190681963        5.4836822692
 C        -8.2138954013        5.5471384726        6.7538392477
 O        -9.2102950742        5.4061480869        7.4215158877
 C        -6.8882232199        4.7780381007        6.9666798272
 C        -7.0137264602        3.6001904946        5.8180622648
 O        -6.2779090726        3.5481586805        4.8106663553
 C        -8.1228665899        2.6351328798        5.9737245579
 C        -7.8717023752        1.3820205607        5.0573579003
 C        -8.1704672355        1.9069355641        3.6487714188
 O        -9.3331087995        2.2317248116        3.3830131212
 C        -7.1079552454        1.9890628429        2.4656905826
 C        -6.8740493069        3.5677617534        2.2107926633
 O        -7.7034783567        4.4267552085        2.4145336266
 C        -5.5253625052        3.9072966180        1.6584753091
 C        -5.8335149549        1.1434694467        2.6758799195
 C        -7.8301697589        1.4432094412        1.1408751063
 C        -5.5946080255        5.4761688852        6.5424796686
 C        -6.7731235660        4.1302007903        8.3569911468
 C       -12.1550881626        8.3783691951        5.3367788529
 C       -12.9541415493        6.5314946100        3.5915092254
 C        -8.3452569936        6.1313941289       -0.2940686596
 C        -9.9212825180        7.3009698588       -1.9187307634
 C       -11.9339170063        0.0672049824       -2.6533164465
 C        -9.4714814051       -0.1244374034       -3.4755850947
 C       -10.7484835832       -1.8517063112      -10.6275994893
 C       -10.6189971048        0.7174926582      -10.7302643498
 H       -14.4957180431        0.5927858616      -10.2064728909
 H       -13.1089257054        0.9874926271      -11.2372341302
 H       -13.2542895572        1.7467020484       -9.5332801438
 H       -12.2458997395        0.4897878782       -7.4154800438
 H       -10.9680889809        1.6203330558       -7.6229539030
 H        -9.5380100600        0.5759399910       -6.1830053623
 H       -10.6628753388       -0.6700376475       -5.9180964181
 H       -11.9128896474        2.6236902038       -1.5253991859
 H       -12.2288961196        2.8470741983       -3.1148842342
 H       -12.0216684924        5.0691000965       -2.4426077223
 H       -10.5310885843        4.9298285669       -3.1764831853
 H       -11.8897648036        8.5437815494       -0.5078085781
 H       -10.5339290904        9.1485247126        0.4433872897
 H       -13.2188285874        8.2158447842        1.7323705094
 H       -12.5213777641        9.7034372669        1.6593366024
 H        -9.8128696611        7.4067903161        6.3357062674
 H        -9.1824392541        8.2810096362        4.9438615581
 H        -7.2721143353        7.1227296737        5.6377161157
 H        -8.0024139232        5.9042396453        4.5755872580
 H        -9.1098794646        3.0951610418        5.6789686275
 H        -8.3397960455        2.2714449954        6.9944883497
 H        -8.5859124446        0.7082329493        5.3491091346
 H        -6.8931505835        0.9910431371        5.1202265944
 H        -5.5125798917        3.3246484333        0.8004592406
 H        -4.7715574024        3.5782179582        2.3944054596
 H        -5.5952306884        4.9348988803        1.4233162881
 H        -6.0408418850        0.0401580695        2.7134233539
 H        -5.5070377637        1.3027600456        3.6893494917
 H        -5.0457007608        1.3253849884        2.0661249181
 H        -7.2838043105        0.5715332045        0.7479434478
 H        -7.8696270433        2.1708968570        0.4393858977
 H        -8.8948061990        1.1692201211        1.4303569941
 H        -5.7827182707        5.9484012823        5.5890690285
 H        -4.7724042445        4.7614413339        6.5110748554
 H        -5.3623020971        6.3927117246        7.2124445990
 H        -5.8525773241        3.6565790423        8.5577410047
 H        -7.5468000196        3.4425334358        8.5023917822
 H        -7.0112686271        4.7249330035        9.2099663133
 H       -13.0198531165        9.0484471659        5.1288437558
 H       -11.3686744871        9.1043997788        5.5468413297
 H       -12.4352753174        7.7961441936        6.2505273631
 H       -12.5751279889        6.1587902400        2.6638772214
 H       -13.9029566398        7.0378043987        3.2405407523
 H       -13.2104797555        5.6240885812        4.1692045989
 H        -7.8010813192        6.9722775036        0.0035807119
 H        -7.9839646374        5.6426268389       -1.1653647604
 H        -8.2058235680        5.4193491043        0.5302334448
 H        -9.3079590785        6.9758549025       -2.7224347590
 H        -9.7219555276        8.2890238224       -1.4991563402
 H       -10.9069361012        7.2583482809       -2.2873527639
 H       -12.0659528297       -0.9665426169       -2.9006097518
 H       -12.8544357104        0.6042749949       -2.9289402191
 H       -11.8715378379        0.1025197784       -1.5278893872
 H        -9.8773277301       -1.0423018419       -3.9771537948
 H        -9.1652343730       -0.3863111795       -2.4442092774
 H        -8.5502300227        0.2854058213       -3.8180552218
 H       -11.6529020587       -2.4943325974      -10.7641313334
 H        -9.9496373152       -2.1550678931       -9.9994681740
 H       -10.4266248537       -1.7545811604      -11.6669316962
 H       -10.8844344972        1.6719497185      -10.2552644516
 H       -11.0273369787        0.8842693572      -11.7057623300
 H        -9.5465922617        0.7984238712      -10.8586043474
 Na       -9.7627810408        4.2115821587        2.3179886877
