117

 C        -7.8743855264       13.0806004348       -8.0711291274
 C        -7.8624498650       11.5508839166       -8.2409698457
 O        -6.9428699591       10.9327963207       -8.6307601222
 C        -9.2001030856       10.7190559598       -8.1552815743
 C        -8.5948603870        9.4537717831       -7.4527153832
 O        -8.5896716945        8.3655069224       -7.9936861671
 C        -8.0709449193        9.5299896811       -5.9514764344
 C        -7.2058519949        8.2630642997       -5.5074075279
 C        -7.6709999980        7.6140086094       -4.2014563571
 O        -8.8250972838        7.5059816747       -3.8058225748
 C        -6.5315146297        6.8379363758       -3.5207559093
 C        -7.0607811033        5.5702256461       -2.5888955346
 O        -6.4707072364        5.2412497860       -1.5933051168
 C        -8.3448525638        4.7791369850       -2.9003988642
 C        -8.8020524429        3.8002703910       -1.7515007519
 C        -9.0456915381        4.4263033721       -0.3866053379
 O        -9.8727623901        5.3507907157       -0.4590932038
 C        -8.3458156865        4.1871131156        0.9326822552
 C        -9.6768995006        3.7730686752        1.8109006913
 O       -10.2022315526        2.7923746247        1.3805136190
 C       -10.2924597227        4.7081577929        2.9579655883
 C        -9.6057604863        4.2863865631        4.2517287664
 C       -10.1383023788        2.9761602365        4.8175099058
 O       -11.1022312917        2.5286244797        4.2770918945
 C        -9.4936337735        1.9255138252        5.9389370092
 C        -8.5456865862        0.8731991679        5.1015067727
 O        -7.8224100012        1.3336772317        4.2594415635
 C        -8.7119653021       -0.6186315617        5.3113509115
 C        -8.5232222844       -1.3874735758        4.0562592866
 C        -9.7202856062       -1.1139637310        3.0788034539
 O       -10.3137292984       -0.0761126029        3.3013423022
 C       -10.1620698239       -2.0579912628        1.8844408458
 C       -11.7429154003       -1.9011784755        1.6358791524
 O       -12.2687411903       -1.5440900213        0.5812622828
 C       -12.4888006900       -2.1819261524        2.8430956493
 C       -13.8815995233       -1.7231973085        2.6657474039
 C       -14.0332892937       -0.3242598345        3.1999840118
 O       -13.3046088783        0.1279656887        4.0974437065
 C       -15.2235738824        0.5144065724        2.6452013417
 C       -14.6979427960        1.2884688078        1.3139923464
 O       -13.5690076541        1.5306468735        1.1101257532
 C       -15.7578957210        1.7890828366        0.2759503578
 C       -16.5126785577       -0.2667973105        2.5088140675
 C       -15.3640847028        1.7488225092        3.5600906402
 C        -9.5919918613       -1.5186154690        0.6027244786
 C        -9.8343927810       -3.5397155557        2.2197318132
 C        -8.4293056579        2.5905635128        6.8484477747
 C       -10.7077031905        1.2721683174        6.5772141304
 C        -7.1225936413        3.1278829748        0.7494221975
 C        -7.8325748238        5.6604037532        1.1363309284
 C        -5.2920182966        6.3055154562       -4.5110204796
 C        -5.9297299893        7.6960847856       -2.3720796185
 C       -10.2196516621       11.5118151292       -7.4017992381
 C        -9.5720457300       10.4073355863       -9.6526634220
 H        -8.2484611710       13.3867686571       -7.1303481837
 H        -8.5661844142       13.6484311083       -8.7419373060
 H        -6.9082308190       13.4266130291       -8.1938241730
 H        -8.9084404921        9.6088896337       -5.2447765592
 H        -7.5630695952       10.5515658941       -5.9776801544
 H        -6.1344535816        8.6117973530       -5.5290466704
 H        -7.0573599413        7.4910503176       -6.3729966684
 H        -8.0289823596        4.1824731632       -3.8003082563
 H        -9.1487626767        5.4437151148       -3.1160755049
 H        -8.1420478857        2.9315823472       -1.7721032028
 H        -9.7236896641        3.3210623144       -2.0817778915
 H       -11.3218629201        4.7298055180        2.9539246313
 H        -9.9494181751        5.7791738910        2.6848206980
 H        -9.5192211803        4.9988890502        5.0997754626
 H        -8.5344262886        4.2978482674        3.9487254808
 H        -9.6408716880       -0.9699616078        5.7602565064
 H        -8.0713465918       -1.0681143446        6.1231850634
 H        -8.3859811455       -2.4930952898        4.3681198832
 H        -7.5713125398       -0.9982427370        3.5292236179
 H       -12.0170732996       -1.8841317447        3.8249450503
 H       -12.4080449722       -3.2468627531        2.8255796365
 H       -14.6432423932       -2.4616441965        3.1638286700
 H       -14.1332076086       -1.7515512714        1.5709054720
 H       -16.7811917224        1.4625172295        0.5870748649
 H       -15.3161242570        1.2411153413       -0.5678422165
 H       -15.6582193489        2.9291025989        0.1136999175
 H       -16.4114069715       -1.2821705992        2.0842515452
 H       -17.3667405426        0.1536611239        1.9994529263
 H       -16.8462794883       -0.5763399539        3.4381237270
 H       -15.6031683256        1.2971744025        4.4838858294
 H       -16.1799851589        2.4248654829        3.3053185078
 H       -14.4194604032        2.3454215942        3.7200622325
 H       -10.2808664572       -0.7833139534        0.2020073232
 H        -9.4662526282       -2.4734456190       -0.0278238945
 H        -8.5542707187       -1.1732357979        0.7114690338
 H        -8.7822379340       -3.6917832085        2.0808347237
 H       -10.3244286049       -4.1769116415        1.5598938851
 H        -9.9928744803       -3.9195571659        3.2284923845
 H        -8.1006621740        3.5382680684        6.4517758317
 H        -7.5101176267        1.9996925688        7.0433699253
 H        -8.9862490084        2.7664648962        7.7468863827
 H       -10.5855645150        0.3051718679        6.8855246981
 H       -11.4544839768        1.2251109031        5.8223002857
 H       -11.0883564897        1.9698654693        7.3389326357
 H        -6.2472179121        3.6623717257        0.7047750391
 H        -7.2052227873        2.4461926863       -0.0571440041
 H        -7.1673005288        2.4256009288        1.6622503562
 H        -7.1078267721        6.0609388392        0.3865387499
 H        -7.3165127428        5.7292975332        2.1378006151
 H        -8.6096147018        6.4099558212        1.2508113768
 H        -4.5566128076        5.9379944525       -3.8652442522
 H        -4.7666145768        7.0692119906       -5.1803932402
 H        -5.7813215419        5.6206896246       -5.1721332926
 H        -5.7911815178        8.7964508954       -2.6561422100
 H        -4.9998498543        7.1849608308       -2.3122477848
 H        -6.4933271756        7.8664562772       -1.4843941233
 H       -11.3133326359       11.3548866325       -7.6374438168
 H       -10.0724189041       12.6477049649       -7.5978547384
 H        -9.9506033055       11.2571346637       -6.3357631072
 H       -10.6339587801       10.3602398786      -10.0139941534
 H        -9.1193161956        9.4559138380       -9.9548785964
 H        -9.1473251465       11.0552317865      -10.4240606869
 Na      -11.8666275818        1.3827535517        2.4752438975
