117

 C        -7.7941995022       13.0904433779       -8.5002756409
 C        -7.6532151571       11.6068411693       -8.4348239253
 O        -6.5352246180       11.0922066644       -8.5901065663
 C        -9.0022185409       10.6310982460       -8.1981356966
 C        -8.5374285245        9.3341111302       -7.4738437275
 O        -8.5936106677        8.2383092879       -7.9611749371
 C        -7.8264122923        9.4845987604       -6.0849624974
 C        -7.0280993094        8.2586892526       -5.7047543020
 C        -7.4904880874        7.6085097114       -4.4167292137
 O        -8.6867270312        7.4420402126       -4.2067735926
 C        -6.5175285949        6.7328948205       -3.4771728315
 C        -7.1185141207        5.6402332722       -2.5937533390
 O        -6.5253808510        5.0396819108       -1.7209324590
 C        -8.3922294851        4.9317050024       -3.0707746177
 C        -8.7998873022        3.8736102499       -2.0429815314
 C        -9.2521808461        4.5116110167       -0.8022490538
 O       -10.0006492834        5.4205804812       -0.8628392597
 C        -8.4928006163        4.0713397920        0.7936777911
 C        -9.7654844060        3.6787290798        1.5751542465
 O       -10.4206944292        2.7237885549        1.1153664410
 C       -10.2161468375        4.4464769581        2.8436211001
 C        -9.6576923794        4.0755227020        4.2670952155
 C       -10.1606099422        2.7756120277        4.8899268483
 O       -11.2947670412        2.4206429422        4.6612218153
 C        -9.4349073408        1.9329851284        5.9858690712
 C        -8.6146503719        0.9513387649        5.1288745563
 O        -7.8658832965        1.3368956368        4.2207287813
 C        -8.7761957136       -0.5452508391        5.4235849567
 C        -8.5935023026       -1.3786289681        4.0371372665
 C        -9.6638201842       -0.9081640261        3.0874132293
 O       -10.4397137601       -0.0192914176        3.3215526176
 C        -9.9285028618       -2.0246197862        1.9038097847
 C       -11.4982243518       -1.8412344155        1.7152904894
 O       -11.9020176742       -1.2083645635        0.8085889070
 C       -12.6204514312       -2.3195719197        2.9007223116
 C       -14.0698721125       -1.5973019749        2.8958819269
 C       -14.1469947749       -0.1241701358        3.3665267903
 O       -13.2631601980        0.2836081739        4.0527572252
 C       -15.3445230837        0.7771951185        2.8014349450
 C       -14.8709892486        1.4967817869        1.4565068788
 O       -13.7012699488        1.3638773247        1.0262690689
 C       -15.9766692411        2.1223668417        0.6075877701
 C       -16.5727469336       -0.0521265851        2.4932642187
 C       -15.6894055422        1.8705343284        3.8589854259
 C        -9.0135122622       -1.6135392716        0.6739549395
 C        -9.5530117957       -3.3849612604        2.3215823139
 C        -8.4180844456        2.7173651388        6.8607631696
 C       -10.4783425565        1.3551850176        6.9200068571
 C        -7.7374837528        2.7124109696        1.0421894346
 C        -7.7721348727        5.1904721923        1.3576158871
 C        -5.5273863882        5.8385369122       -4.3395442114
 C        -5.6386294104        7.6775331563       -2.6331225300
 C       -10.2131564053       11.2350716136       -7.4201045380
 C        -9.4373333453       10.3185944063       -9.6319355061
 H        -8.0929833599       13.6607359029       -7.4614294841
 H        -8.6877547561       13.2557741392       -8.9990234673
 H        -6.9746929296       13.6614788117       -8.9597408796
 H        -8.7015171958        9.4402937116       -5.4085047484
 H        -7.4345286215       10.4748576663       -6.1595457546
 H        -5.9517342711        8.4772577539       -5.7716128476
 H        -7.0171638342        7.5727726717       -6.5055264722
 H        -8.0636085415        4.5573994159       -4.0304813657
 H        -9.2312845750        5.6756468772       -3.1472241990
 H        -7.9921019910        3.1388279256       -1.9034998833
 H        -9.6382176895        3.2867867312       -2.3759695058
 H       -11.3610891468        4.4543367679        2.9260182766
 H        -9.9945555725        5.4658154975        2.6419128577
 H        -9.7759236608        4.8801622994        4.9783170440
 H        -8.5796524528        4.1039811180        4.2631375166
 H        -9.6705517123       -0.8438442505        5.9510544052
 H        -8.0778385305       -0.8904114754        6.1557727630
 H        -8.7028711056       -2.4047819645        4.1308095545
 H        -7.6371699390       -1.1521942494        3.6383553802
 H       -12.2032848497       -2.0509028738        3.8390584614
 H       -12.7811579302       -3.4402108153        3.0404040517
 H       -14.6131480206       -2.2412313282        3.4633523719
 H       -14.5524181449       -1.5780859401        1.9354790254
 H       -16.3514689381        2.8529113854        1.2964690273
 H       -16.6138423179        1.3084435990        0.2604119317
 H       -15.4843124808        2.6317788288       -0.1750568505
 H       -16.5345403788       -0.8026680683        1.6809499130
 H       -17.5190751387        0.5476204618        2.3506625513
 H       -16.9909857522       -0.7026204530        3.3979266562
 H       -16.1296280425        1.4549991424        4.7531813494
 H       -16.4681402072        2.5691802527        3.4163244077
 H       -14.8373908543        2.3809036787        4.1186212182
 H        -9.3401986283       -0.6162418607        0.3231896769
 H        -9.0916968655       -2.3668065154       -0.0484068515
 H        -7.9461749253       -1.6048406230        1.0249110189
 H        -8.5145314120       -3.6122382297        2.7426772808
 H        -9.7898539472       -4.0701026456        1.4007462274
 H       -10.1757873496       -3.7708389139        3.1543244281
 H        -7.8371723056        3.5390983643        6.3935748800
 H        -7.6558677997        1.9988548893        7.1616792449
 H        -9.0286047984        3.0254468501        7.7527211957
 H        -9.9426221193        1.2351341384        7.9154972476
 H       -10.9301020862        0.3623990192        6.7267002893
 H       -11.1565186534        2.1676343239        7.1318839223
 H        -6.5768019643        2.6821171753        0.7817653374
 H        -8.1436792087        1.8513370340        0.4389625889
 H        -7.8519546086        2.5519449368        2.0509610563
 H        -6.9329467724        5.4329427476        0.8247306408
 H        -7.5161082674        5.0913677050        2.3505503673
 H        -8.3449582852        6.1146607576        1.3486653934
 H        -4.5490357331        5.8061273487       -3.7812837367
 H        -5.3128895217        6.2267180219       -5.2653891555
 H        -6.0399725173        4.8526328233       -4.4404218480
 H        -5.0085504259        8.3786975696       -3.2297911192
 H        -5.0302432182        7.0774892972       -1.9084061916
 H        -6.3935290239        8.3413572271       -2.0846339747
 H       -10.9897292681       11.1687506845       -8.1144246717
 H       -10.1715018778       12.2533487220       -7.1406558969
 H       -10.4423118712       10.6917665805       -6.5469866612
 H       -10.5210511364       10.4186989961       -9.7422070922
 H        -9.2835528536        9.2589172897       -9.9275337494
 H        -9.0912272103       10.8575241156      -10.5238462426
 Na      -12.0513990168        1.7475261172        2.6697000033
