117

 C        -7.8843968343       13.0734392413       -8.6780544450
 C        -7.6262529056       11.6072758178       -8.4544843401
 O        -6.5272694635       11.1503750565       -8.4472128101
 C        -8.8645887261       10.5622223925       -8.3794995252
 C        -8.3230658645        9.3144808205       -7.5896971735
 O        -8.6442461086        8.1886949775       -7.8981444795
 C        -7.7777169873        9.4353632198       -6.0006185388
 C        -6.8933557643        8.2731879473       -5.7288947025
 C        -7.4081377494        7.3749209845       -4.5984903960
 O        -8.5649174387        7.5981556497       -4.3186322093
 C        -6.5111427614        6.6296564705       -3.5858415760
 C        -7.0702978083        5.5532502972       -2.5929799706
 O        -6.3929538219        5.2603888445       -1.6580321149
 C        -8.4873355755        4.9176093972       -3.0582993987
 C        -8.8545265894        3.7068910288       -2.1188925764
 C        -9.2189548043        4.3985233516       -0.7602481032
 O        -9.9715636057        5.3700476227       -0.8522042993
 C        -8.6550720083        3.9999680332        0.7751117507
 C        -9.9857834918        3.6575321588        1.5925331084
 O       -10.6657172125        2.7340778875        1.1885424479
 C       -10.2880429198        4.4680246169        2.8776964344
 C        -9.5601525513        3.8332944608        4.1105413729
 C       -10.3955893282        2.7813650905        4.9976393004
 O       -11.5400285467        2.4855963446        4.9214878874
 C        -9.3603507599        2.0803008980        6.1588533113
 C        -8.5051367246        0.9576869946        5.1639255472
 O        -7.8836764414        1.3822368860        4.2143694950
 C        -8.6064009886       -0.5020784219        5.4727041353
 C        -8.5122361325       -1.4340695885        4.1450122510
 C        -9.6850253326       -1.0336018145        3.1813040710
 O       -10.3292278798        0.0153550249        3.2137039380
 C        -9.9701175763       -2.0553108285        2.0396264819
 C       -11.5507518692       -1.6530840480        1.8133331594
 O       -11.9356804873       -1.0323010528        0.8403455934
 C       -12.4495101800       -2.2193758181        2.8449180249
 C       -13.8835111076       -1.6585231094        2.8032870348
 C       -14.0710006416       -0.1556067828        3.2898578718
 O       -13.3129153308        0.3682961487        4.0851135591
 C       -15.3822345426        0.7916240050        2.8380128889
 C       -14.9671129820        1.5262760052        1.5248619390
 O       -13.8763759554        1.4164649295        1.0598702702
 C       -16.0436160270        2.3276154357        0.7248516350
 C       -16.7164103899        0.0511442213        2.5875841563
 C       -15.8006948037        1.8538047127        3.9630314722
 C        -8.9707531448       -1.5477169168        0.8475171481
 C        -9.6217641570       -3.5044538811        2.2963947820
 C        -8.3734878744        3.0192129197        6.8005185968
 C       -10.3986133976        1.4473665668        7.1755845258
 C        -7.9044571527        2.4893246755        0.7127009543
 C        -7.8897759665        5.0685068072        1.4757924409
 C        -5.4620526027        5.5419740365       -4.5529900586
 C        -5.7132723336        7.7300702428       -2.8055771040
 C        -9.8690051887       11.1120294309       -7.3731346824
 C        -9.3830065022       10.1954629955       -9.7861558346
 H        -7.9369136732       13.6243330367       -7.7085588893
 H        -8.9063852075       13.3341080032       -9.0919886137
 H        -7.0754147173       13.5463822932       -9.2296606767
 H        -8.7181551594        9.3538599428       -5.4776447562
 H        -7.3668356801       10.4671561422       -5.9999031703
 H        -5.8992618261        8.6891651500       -5.7123017642
 H        -6.7027551677        7.7929550363       -6.5786103957
 H        -8.2945546758        4.6765274810       -4.1009993729
 H        -9.2144493620        5.7059071386       -2.9895023066
 H        -8.0474359706        2.8703376282       -2.2274413084
 H        -9.7946545996        3.2253281595       -2.4353182947
 H       -11.2758418444        4.6755262272        3.1878784570
 H        -9.8045009107        5.5487576368        2.7367499131
 H        -9.1580208721        4.6586642252        4.7288242363
 H        -8.5690120959        3.4030767635        3.9133786682
 H        -9.4965105698       -0.7066303779        5.9664567725
 H        -7.9081872636       -0.9231354388        6.2612396980
 H        -8.6233610390       -2.4510467971        4.4126772981
 H        -7.5648063885       -1.2793147874        3.7624829217
 H       -12.0218473910       -2.3744823112        3.8472320794
 H       -12.6151609199       -3.2694156454        2.5383697148
 H       -14.3872310284       -2.3395973320        3.4300540760
 H       -14.3001182248       -1.7764748261        1.7728623235
 H       -15.9179363502        3.3285721020        1.1118521602
 H       -17.0135729283        1.8662368351        0.7731320596
 H       -15.6267458762        2.3075521684       -0.2850383519
 H       -16.8562060756       -0.3129505332        1.5412794736
 H       -17.6191344926        0.6571124280        2.8445683258
 H       -17.0048908672       -0.7982336761        3.1820802762
 H       -16.3533751197        1.5056878150        4.8042195570
 H       -16.4963670681        2.5199460656        3.3443629315
 H       -14.8955798012        2.4673726380        4.2743917132
 H        -9.0381541228       -0.5131099405        0.7393580783
 H        -9.3317503456       -2.0673049386       -0.0401184355
 H        -7.9387853564       -1.8354092295        1.1167616371
 H        -8.5510779623       -3.8394573298        2.3633543895
 H       -10.1635209105       -4.0544659616        1.5295134776
 H        -9.9403904810       -3.8474942935        3.2750178037
 H        -7.5792002990        3.2609128347        6.1230510925
 H        -7.8499162087        2.3905970673        7.5591931015
 H        -8.8669624818        3.8720076851        7.2745014696
 H       -10.0003234009        1.0235293774        8.1046500830
 H       -10.9268058436        0.6166168821        6.6425536766
 H       -11.0659143733        2.3300503291        7.5335859379
 H        -7.3003637015        2.4455399516       -0.1691640617
 H        -8.6608222347        1.6809697262        0.4355165715
 H        -7.2762865741        2.2642357653        1.6297369727
 H        -6.9256712989        5.2695474748        1.0635038595
 H        -7.8041543053        4.9194458364        2.5302483095
 H        -8.3398095766        6.0584958788        1.4151989038
 H        -4.7229532083        5.1330435543       -3.8812711503
 H        -4.9161037244        5.9655870860       -5.4223218363
 H        -6.2240329943        4.7689976497       -4.8051032345
 H        -4.6931515027        8.0868444590       -3.3233585561
 H        -5.4768141866        7.2612942547       -1.7884769246
 H        -6.3776787429        8.6168813504       -2.6096569367
 H       -10.7428218076       11.2218481878       -7.9215639216
 H        -9.5900701698       12.1114416866       -7.0108947968
 H       -10.0061266039       10.5779007922       -6.5061881262
 H       -10.4542557313       10.1763759482       -9.8820827511
 H        -9.1321429681        9.2443001046      -10.1443268716
 H        -9.0654496255       10.8628074359      -10.5715121715
 Na      -12.0525124011        1.8332186751        2.5532928352
