117

 C        -7.9669580492       12.8002146723       -9.0822946027
 C        -7.4764588056       11.5724958369       -8.3984010045
 O        -6.2520212391       11.3661741023       -8.2232996116
 C        -8.6563769955       10.4436409088       -8.2956890709
 C        -8.2297928893        9.0699427052       -7.5940397408
 O        -8.4932617182        8.0042779652       -8.0979382136
 C        -7.3830622889        9.3703643462       -6.3308355809
 C        -6.7210599151        8.0613529032       -5.7978391828
 C        -7.3355306730        7.3316015636       -4.7449984538
 O        -8.5042335685        7.4612663247       -4.3631040926
 C        -6.2892840681        6.3913531646       -3.9003113799
 C        -7.1410260941        5.6185622974       -2.7487295523
 O        -6.6386625369        5.5411387581       -1.6212589455
 C        -8.4750827937        4.8448833451       -3.1829792333
 C        -8.9231649693        3.9316412217       -1.9832033133
 C        -9.3701906954        4.4929961785       -0.6707589286
 O       -10.0458375944        5.4655590140       -0.5790088465
 C        -8.8560489029        3.6328842211        0.6804567890
 C       -10.2606461683        3.5665439199        1.4972091295
 O       -11.1241334318        2.8894168946        0.9509526078
 C       -10.4446302961        4.2606908498        2.8415408884
 C        -9.5733469723        3.3885185377        3.8177622812
 C       -10.3324745838        2.7791061790        5.0385662068
 O       -11.5876117562        2.8320307417        5.0913988302
 C        -9.3855272199        2.1736486711        6.1131073231
 C        -8.5362246609        1.1507329214        5.3735286636
 O        -7.7622950224        1.5020635281        4.4974247319
 C        -8.5710296153       -0.4155135689        5.7124113880
 C        -8.4681860885       -1.3839671742        4.4401205089
 C        -9.5549758121       -0.9132965702        3.3995587291
 O       -10.0455062075        0.2085254912        3.4407065720
 C       -10.0009487048       -1.8609946073        2.1831690924
 C       -11.5048681900       -1.4243425738        1.8958785363
 O       -11.7201185727       -0.7665259821        0.9199548682
 C       -12.6794070503       -1.9211340230        2.8427772625
 C       -14.1372426976       -1.4394285989        2.5159641827
 C       -14.2538695491       -0.1334599411        3.2130413755
 O       -13.4142288451        0.3144825223        3.9505122556
 C       -15.4636675338        0.7046211457        2.9012729954
 C       -15.1057680640        1.6507974302        1.7054593705
 O       -13.9640343329        1.6772706549        1.1875680905
 C       -16.2105546406        2.5832866243        1.0452425518
 C       -16.7065927397       -0.2514919860        2.7056120634
 C       -15.6081454606        1.7351718057        4.0631352330
 C        -9.1814081656       -1.4598629801        0.8932465224
 C       -10.0623582177       -3.4702345748        2.3250749680
 C        -8.4032353438        3.3581705858        6.5659679366
 C       -10.0642632292        1.5708515725        7.4333404085
 C        -8.1131378726        2.2130185419        0.5816244347
 C        -7.7742994391        4.6569004318        1.1796787739
 C        -5.4137416548        5.5614939573       -4.8797949097
 C        -5.3409898720        7.4674874260       -3.1468589540
 C        -9.7603115079       11.2302544613       -7.4990573307
 C        -9.2473671656       10.0219838779       -9.6670840091
 H        -8.1046498546       13.8167760169       -8.5383594620
 H        -8.8873647588       12.6866443681       -9.4722270632
 H        -7.2689818847       12.9518849688       -9.8757127766
 H        -8.1601722819        9.8234772549       -5.6993379519
 H        -6.7569691542       10.1083698268       -6.7303673753
 H        -5.6978969473        8.4192101976       -5.6134773276
 H        -6.2932776345        7.3219531764       -6.6064863796
 H        -8.2440910434        4.2380801415       -4.0644308980
 H        -9.2233932538        5.6189293044       -3.4547949001
 H        -8.0220768766        3.4049227163       -1.7926556671
 H        -9.6278451142        3.1935978584       -2.4277470205
 H       -11.4882858411        4.2427520283        3.2676449041
 H       -10.1709180177        5.2194421843        2.9069869936
 H        -8.6890169161        3.9973930435        4.0476939247
 H        -8.9687154779        2.5739462890        3.4021430242
 H        -9.5612953615       -0.8126599862        6.1628599623
 H        -7.8747969532       -0.7445488401        6.4569729289
 H        -8.6580131809       -2.4679453538        4.7521647028
 H        -7.3917499147       -1.2873382265        3.9964708941
 H       -12.3840107618       -1.5260115850        3.8210875875
 H       -12.6874562644       -2.9969441278        3.0660530478
 H       -14.9567737072       -2.1364360188        2.9485520800
 H       -14.2608538970       -1.3797754555        1.4144104575
 H       -15.6544887782        3.4775076014        0.6846594609
 H       -17.0017391182        2.6703820251        1.8389311539
 H       -16.6404244312        1.9393728093        0.2582311832
 H       -16.7234522198       -0.6148723504        1.7011721502
 H       -17.6429025775        0.2218263888        2.8923853410
 H       -16.8683318437       -1.0605917751        3.4943358559
 H       -15.8966292576        1.2308323435        5.0255594096
 H       -16.3851842441        2.4617846636        3.8424041724
 H       -14.6733195322        2.1773904700        4.1548374204
 H        -9.1465157555       -0.3256076765        0.9337679374
 H        -9.7435349609       -1.7510907624        0.0219147377
 H        -8.1482894326       -1.7580583080        1.0616552585
 H        -9.0860591246       -3.8541731585        2.2317846757
 H       -10.6234923608       -3.9412400086        1.5521985157
 H       -10.3456520468       -3.7138560929        3.3023368091
 H        -7.4481745799        3.1097345306        6.0863901401
 H        -8.2477419888        3.5395499674        7.5952214382
 H        -8.7208806630        4.2845851552        6.0755789207
 H        -9.4240875718        0.8044544966        7.8891448501
 H       -10.9915623518        1.0761346980        7.2776068521
 H       -10.1038719936        2.2772501292        8.1668099791
 H        -7.1813188162        2.2194237510       -0.1192177638
 H        -8.7215941271        1.4597813260        0.1455251220
 H        -7.7377852207        1.9938624401        1.5021338029
 H        -7.0418972627        4.8417510038        0.3658949056
 H        -7.2184891261        4.4536491275        2.1378015649
 H        -8.1359714665        5.7113398285        1.3508931389
 H        -4.9476067808        4.6886890827       -4.3256780253
 H        -4.6315172572        6.2426006993       -5.0922761415
 H        -5.9487749841        5.1729863580       -5.7327363823
 H        -4.4083393559        7.5385846886       -3.6128502105
 H        -5.1419460994        7.2014211768       -2.0902408203
 H        -5.8289011932        8.5229444327       -3.0480213458
 H       -10.1278026301       12.1130264437       -8.1231870161
 H        -9.3800702172       11.5292431031       -6.5098709591
 H       -10.6551635249       10.5898243554       -7.1458764709
 H       -10.1336768554        9.4103664263       -9.6811535823
 H        -8.6528388757        9.3665714661      -10.3250765791
 H        -9.4206338394       10.8994606610      -10.2608952326
 Na      -12.1679865672        1.4531579879        2.7629320730
