117

 C        -7.6515096320       12.7079236686       -9.7151484525
 C        -7.5529100387       11.5372797129       -8.5563912739
 O        -6.4854161519       11.4001309249       -8.0567933213
 C        -8.6036479139       10.4709493195       -8.4286229963
 C        -7.9078505001        9.2361229920       -7.7880143533
 O        -8.1793587911        8.1147965071       -8.1120542692
 C        -6.9987711141        9.2505384876       -6.3450905151
 C        -6.5201941659        7.8203262669       -6.1037007944
 C        -7.1038941739        7.2875071013       -4.7827874516
 O        -8.2944978400        7.4494800985       -4.6209011930
 C        -6.1398704053        6.3483461917       -3.9208033345
 C        -7.1209963359        5.6753272854       -2.7422793544
 O        -6.8035811001        5.6925204861       -1.5585715469
 C        -8.4956872908        5.0482816171       -3.2247642565
 C        -8.9527407311        3.9189826705       -2.2608720800
 C        -9.2458155792        4.4292305763       -0.8618406846
 O        -9.9687955943        5.4019408937       -0.7737328598
 C        -9.0242454779        3.5641171853        0.5491927476
 C       -10.4100752807        3.5647073711        1.3230948144
 O       -11.1504608975        2.7458361186        0.8237231404
 C       -10.4985125143        4.0947361205        2.8481883482
 C        -9.5120457396        3.2995469561        3.7199370969
 C       -10.1429253140        2.7724410996        4.9564406537
 O       -11.3295923601        2.6266971721        5.1160184105
 C        -9.2474840275        2.4104462807        6.0226475248
 C        -8.3709650763        1.0357321643        5.4886334637
 O        -7.2911700051        1.2860074114        4.9552354794
 C        -8.7955675635       -0.3502970216        5.8167373449
 C        -8.6158813244       -1.1731040430        4.5678198415
 C        -9.7032781917       -0.7417960795        3.5692148828
 O       -10.0954948962        0.4086824254        3.7117874013
 C       -10.0782631173       -1.6583147224        2.2565879002
 C       -11.6209410929       -1.3418274951        1.8698442764
 O       -11.9172000738       -0.3129449566        1.2655705808
 C       -12.7367916616       -2.1239105552        2.5002073466
 C       -14.0694032028       -1.3494188933        2.3055714355
 C       -14.3108591078       -0.1449872544        3.3037365041
 O       -13.5229261644        0.0695339432        4.2721093115
 C       -15.6015632200        0.7241351014        3.0393949409
 C       -15.2970561757        1.8501958684        1.8334245433
 O       -14.1834243830        1.9873599922        1.4722800002
 C       -16.5006278664        2.6043707494        1.2508133925
 C       -16.9153426780       -0.0272147116        2.7006240257
 C       -15.8933001517        1.5848566989        4.2391621377
 C        -9.1829140492       -1.4240000856        0.9998948232
 C        -9.9908166033       -3.1389753074        2.8784493500
 C        -8.2811155364        3.4949913669        6.5800962559
 C       -10.0964247514        1.8993615314        7.2723962885
 C        -8.6350624090        2.1231674296        0.2932205156
 C        -7.9953133388        4.4337659613        1.3589640071
 C        -5.7604239659        5.2505778893       -4.8298535506
 C        -5.0719094444        7.0314428437       -3.1163229987
 C        -9.7499114361       10.9408266923       -7.4162874466
 C        -9.2302868215       10.0098947550       -9.8491784522
 H        -7.8335721100       13.6443412980       -9.3837742736
 H        -8.5506115499       12.5720976638      -10.4681014636
 H        -6.6515697475       12.7166579095      -10.2612888298
 H        -7.7922823457        9.4912579054       -5.6786336321
 H        -6.1988746710       10.0176983899       -6.4574168027
 H        -5.5369666063        7.8410440101       -6.4992496303
 H        -6.8761557851        7.2138916070       -6.8435801038
 H        -8.1506142714        4.4591365107       -4.0947536427
 H        -9.3047581733        5.7458009476       -3.4516339139
 H        -8.1259354321        3.1647453823       -2.3078587899
 H        -9.8001075426        3.6153077412       -2.8204135032
 H       -11.4838606007        3.8742669180        3.2190003086
 H       -10.3664996015        5.2680392591        3.0128741725
 H        -8.5650201349        3.8023347904        3.8842111628
 H        -9.0719370943        2.4888643997        3.1519931046
 H        -9.7652382878       -0.5802031090        6.1174537796
 H        -8.0719980335       -0.6926528424        6.6124475622
 H        -8.7229738075       -2.2046191627        4.7669232215
 H        -7.6974540221       -0.9315368643        4.1593758158
 H       -12.6489496691       -2.2400598009        3.6070966238
 H       -12.6826235662       -3.1650160550        2.2034074532
 H       -14.9323344197       -1.9458613585        2.5003013054
 H       -14.0202584970       -0.9748804123        1.3301262848
 H       -16.0509776241        2.8556291266        0.3230569863
 H       -16.7073767195        3.4391526474        1.8735067173
 H       -17.3117773411        1.9175418827        1.2899860008
 H       -16.8239179895       -0.8753626042        1.9190414659
 H       -17.7806228352        0.6202459559        2.2899811000
 H       -17.4378461579       -0.3191743499        3.5839598523
 H       -15.6319938418        1.0604082634        5.1529407618
 H       -16.9045329175        1.7987409139        4.2767525096
 H       -15.2554958691        2.5079874274        4.1682947465
 H        -9.3518022848       -0.4583758033        0.6127198773
 H        -9.5609043593       -2.1488649574        0.2404699049
 H        -8.1925832064       -1.4325890729        1.3885525681
 H        -8.8986184301       -3.3488701459        3.0973565555
 H       -10.2332175544       -3.9507718425        2.1312992416
 H       -10.6114075469       -3.2172070787        3.8811742748
 H        -7.5588804791        3.8377770481        5.8079030383
 H        -7.7264357856        3.0732357341        7.4838337203
 H        -8.8134182375        4.3977559025        6.9240535410
 H        -9.5281011119        1.5449394455        8.0968255214
 H       -10.7238569519        1.0789434928        6.9021833174
 H       -10.8168527128        2.6405076130        7.7660260415
 H        -7.6542833447        1.8036578657        0.4101064647
 H        -8.9459559552        1.9451463078       -0.7472742450
 H        -9.1357380336        1.3469023178        1.0551373487
 H        -7.1661703440        4.7769257928        0.7740009721
 H        -7.5394608379        3.9332011932        2.1668436401
 H        -8.3815635675        5.2971211978        1.7574852906
 H        -5.2316829577        4.5353175952       -4.2962870145
 H        -5.1314443775        5.6793209473       -5.6869705398
 H        -6.6498172456        4.7366208996       -5.1546453730
 H        -4.4820327270        7.6017462998       -3.8821678467
 H        -4.2878058865        6.3204848402       -2.8572741182
 H        -5.3283681462        7.4134015051       -2.1462072004
 H        -9.7072921237       11.9864759476       -7.4002538273
 H        -9.5491824993       10.5256874879       -6.4306295906
 H       -10.7343540194       10.6621791225       -7.6595992373
 H        -9.3167613373        8.9165797229       -9.8444648101
 H        -8.5818703781       10.0130790468      -10.7180103353
 H       -10.1476463069       10.4951124343      -10.2354233486
 Na      -11.8595180202        1.3881123956        2.7073850571
