117

 C        -7.5188455514       12.3820649637      -10.0592803001
 C        -7.3431636800       11.5980118151       -8.8062509665
 O        -6.5279284831       11.9478367285       -7.9334588364
 C        -8.4736784265       10.2940341411       -8.4768830232
 C        -7.7804246889        8.9557626207       -7.9499400731
 O        -7.9424825244        7.9278684429       -8.5951464640
 C        -6.8626357697        9.1455714672       -6.6715010577
 C        -6.1604563410        7.8539856655       -6.0174694543
 C        -6.9205522295        7.2234695178       -4.9053141103
 O        -8.0242073800        7.6078307624       -4.5213391093
 C        -6.2628819170        6.0915323297       -3.9740758934
 C        -7.2226538167        5.6697404580       -2.7986651629
 O        -6.8907643852        5.7864558328       -1.6524425330
 C        -8.5667969784        5.1455981444       -3.2344247219
 C        -8.8512778531        3.9296499284       -2.2491458024
 C        -9.4317893391        4.4079155138       -0.9653217866
 O        -9.9093044029        5.5238798025       -0.8570391084
 C        -9.2230841519        3.5866920802        0.2574811154
 C       -10.4538604872        3.3548947708        1.1440428837
 O       -11.3942842661        2.6770402119        0.6885307832
 C       -10.3343311677        4.0667491395        2.6395809657
 C        -9.3147746017        3.5638892916        3.7681157278
 C        -9.9926864502        2.7087406499        4.9103987352
 O       -11.1354908262        2.2456234552        4.8036148192
 C        -9.2293141619        2.4813155394        6.1928047885
 C        -8.1974525756        1.1643234755        5.8636463632
 O        -7.0470910146        1.2840171860        5.5317437123
 C        -8.7675509830       -0.2875791009        6.0549048097
 C        -8.7180016917       -1.0745847121        4.6712911706
 C        -9.8116961965       -0.6399825723        3.6944359505
 O       -10.1707204572        0.5007034993        3.5328701468
 C       -10.2241548424       -1.7148279378        2.6935781494
 C       -11.7328878288       -1.2124893920        2.1651113295
 O       -11.6695379105       -0.2398224273        1.4671870669
 C       -12.9452661626       -2.0352253656        2.1735314296
 C       -14.3591719400       -1.3752851802        2.2410512824
 C       -14.5126246003       -0.2210977951        3.2872695677
 O       -13.8015203325       -0.0400251792        4.1880357460
 C       -15.8108994655        0.7759222831        3.1950230640
 C       -15.4112736254        1.8976064598        2.2254478815
 O       -14.2090986704        2.2077009521        2.1114664011
 C       -16.5294456835        2.6315084970        1.3233902251
 C       -16.9859572581       -0.1268204453        2.8019621379
 C       -16.0365903375        1.5057281343        4.5536728451
 C        -9.1984882161       -1.4514191264        1.4336961170
 C       -10.0716475510       -3.2214208964        2.9893880876
 C        -8.1089347602        3.5402708172        6.5344448204
 C       -10.1319554636        2.2616150996        7.4154156685
 C        -8.6789794272        2.1680328623       -0.1569258109
 C        -8.0027607007        4.2055658366        0.8209683510
 C        -5.9009152803        4.6493325781       -4.5486322605
 C        -4.9224398910        6.7073811769       -3.5119409037
 C        -9.5387358441       10.8490489660       -7.4993737319
 C        -9.2191027255       10.0002558321       -9.7926536766
 H        -7.7959500261       13.4727839067       -9.7700150270
 H        -8.2884496825       11.9443147847      -10.6695880993
 H        -6.6399619196       12.4437569038      -10.5866105647
 H        -7.6223758132        9.5951880101       -5.9353106057
 H        -6.1822716780        9.9149956219       -7.0524483426
 H        -5.1028440673        8.2009119193       -5.7301694368
 H        -5.8617563124        7.1988979660       -6.9077002127
 H        -8.6080957524        4.9373711517       -4.2750783610
 H        -9.2302024984        5.9475087758       -2.9071085430
 H        -7.8789790359        3.4734321489       -2.1219146639
 H        -9.6421206901        3.2697923833       -2.7225421598
 H       -11.3567621565        4.2145884861        3.0360738135
 H        -9.9799858574        4.9812004182        2.2989025421
 H        -8.9497678881        4.5076359308        4.2727950098
 H        -8.3697311357        3.2342676509        3.2686195014
 H        -9.8819488412       -0.2726254433        6.2019182572
 H        -8.2728488919       -0.8197459494        6.8685022703
 H        -8.6744468273       -2.1903885337        4.7248662089
 H        -7.7790725629       -0.6388262792        4.1976399604
 H       -13.0655664738       -2.8242052683        2.8853626679
 H       -12.8548489721       -2.5987770578        1.2105270413
 H       -15.0868592310       -2.1750227573        2.5413802605
 H       -14.5679308112       -0.9199797805        1.1956005312
 H       -16.2408998975        2.2351624419        0.3414544995
 H       -16.2758875996        3.7090008212        1.3818774230
 H       -17.4389478216        2.2985184863        1.8115467315
 H       -16.9669497980       -0.4519347946        1.8175174799
 H       -17.9659491241        0.3173268850        2.9231747681
 H       -16.9803770081       -1.0285533536        3.5520830568
 H       -16.1011208730        0.7537314976        5.3355127615
 H       -17.0800899957        2.0642956461        4.5230424064
 H       -15.2019103165        2.1691219689        4.7564765847
 H        -9.7346381451       -0.7378298859        0.7945772068
 H        -9.1473348968       -2.3518581803        0.9423383531
 H        -8.2666069298       -1.0070831851        1.8220430255
 H        -9.0522621704       -3.5350567362        2.8441548796
 H       -10.6247251531       -3.6950135349        2.2061003661
 H       -10.4838216959       -3.5019387972        3.8731037347
 H        -8.0000800668        4.3944148984        5.8877821221
 H        -7.1843405992        3.0762516342        6.6903493954
 H        -8.2947033165        3.9895661851        7.5160735571
 H        -9.5413626240        2.0570620994        8.3568233103
 H       -10.9501063059        1.5212597343        7.2970107037
 H       -10.6439341345        3.1873978576        7.6792862763
 H        -7.6792174831        2.2708031538       -0.6388699695
 H        -9.3404998182        1.4913187291       -0.7322078582
 H        -8.3298443118        1.6584790710        0.6615887414
 H        -7.2472737264        4.4705203522        0.0886863115
 H        -7.4166740305        3.5023181800        1.4333883803
 H        -8.1581864566        5.1654817931        1.4456235125
 H        -5.3690565676        4.1084022768       -3.6777247059
 H        -5.2580905008        4.7515041757       -5.3515272435
 H        -6.7886356622        3.9973437993       -4.8783680446
 H        -4.9330486098        7.8245879784       -3.4337417998
 H        -3.9104355912        6.5431304965       -4.0351179808
 H        -4.7504079103        6.1221294010       -2.5506960787
 H        -9.6040598409       11.9466265978       -7.4836444697
 H        -9.2198117347       10.5911245932       -6.4752006359
 H       -10.5317198180       10.4859351889       -7.7645653008
 H        -9.6661123012        9.0396573620       -9.8823171566
 H        -8.5002659586        9.9476866789      -10.5900842945
 H        -9.9317901986       10.7350049201      -10.0671914176
 Na      -12.2391952194        1.8292442185        2.7034371503
