117

 C        -6.3320413550       11.0212663920      -10.4936423243
 C        -7.1516485679       11.0412257682       -9.1801033514
 O        -7.5909532482       12.0643374368       -8.6277261365
 C        -7.5567951653        9.6260156545       -8.5826146695
 C        -6.3977859987        8.6240689073       -8.2067648853
 O        -6.3536666465        7.5927089653       -8.9013039790
 C        -5.4864668046        8.9146213928       -7.0882136785
 C        -5.2652304987        7.4963748730       -6.3644912801
 C        -6.3632108313        7.3848112091       -5.3226790650
 O        -7.3819163397        8.0397471500       -5.2210037916
 C        -6.5589413564        5.8528910010       -4.6912161700
 C        -7.2324651572        5.9244389506       -3.2750727550
 O        -6.6049452216        5.6463344395       -2.2917171419
 C        -8.8419614505        6.1356440690       -3.0856295582
 C        -9.3775515756        4.8104116940       -2.5608826829
 C        -9.5456627135        4.5358544594       -1.0346451374
 O       -10.1420726896        5.3594683255       -0.3264149589
 C        -9.0691221522        2.9723457328       -0.2596525494
 C        -9.7232104608        3.4264465731        1.2185167879
 O       -10.8659812118        2.9745842174        1.3734543190
 C        -9.0896919748        4.4434103815        2.1026438096
 C        -8.6138569214        3.6700291761        3.4627023636
 C        -9.6520995609        3.6813936306        4.5932063058
 O       -10.8825877535        3.7385911918        4.4682910717
 C        -9.1727159675        3.3294856571        6.0110483164
 C        -9.0908106268        1.6807530261        5.9416240740
 O        -7.9927405261        1.2156842535        5.6750819013
 C       -10.5275802104        1.0457953355        6.1695599603
 C       -10.6106172849       -0.3004659813        5.6369122716
 C       -10.4827053192       -0.4379667730        4.1149481497
 O       -10.0260642003        0.4551411131        3.4850391648
 C       -10.8054672068       -1.8005309492        3.4008241483
 C       -12.1187867915       -1.3482686472        2.5264283223
 O       -11.9066552587       -0.3023989260        1.9711819813
 C       -13.2477237336       -2.2502426263        2.1849825172
 C       -14.5086864764       -1.3818220040        2.3437011673
 C       -14.6570962842       -0.4764068376        3.5497420534
 O       -13.6776805339       -0.1486188947        4.2839493931
 C       -15.8829929324        0.4729901027        3.7157041995
 C       -15.5374003894        2.0184192834        3.2398357493
 O       -14.4539292583        2.5171280447        3.0959616714
 C       -16.7561915594        2.9644496203        3.0367328127
 C       -17.1419244583       -0.0614873244        2.9058557624
 C       -16.1067214010        0.6405436889        5.2660896164
 C        -9.8500409768       -2.2734945171        2.1853045042
 C       -11.1374157226       -2.9462023208        4.3833048929
 C        -7.7877322605        3.9358933762        6.3098206379
 C       -10.1118251281        3.6736628790        7.1348647842
 C        -9.6998540686        1.7373129450       -0.9196828936
 C        -7.4703491792        3.0630367794       -0.4076126669
 C        -7.3887886570        5.1102764464       -5.6911583097
 C        -5.1782012155        5.1221773850       -4.5189961698
 C        -8.5727285467        9.7606179680       -7.4508318552
 C        -8.3779915488        8.9928293284       -9.8317662907
 H        -6.2667385547        9.9497844020      -10.7432802782
 H        -5.1739749047       11.3330484959      -10.3024096624
 H        -6.6896361267       11.5207982948      -11.2988403060
 H        -5.9463522962        9.6752268292       -6.4373452549
 H        -4.5066880322        9.3128250618       -7.4099418489
 H        -4.2832239061        7.3589100875       -5.7790798836
 H        -5.5828352501        6.7927118450       -7.2590310803
 H        -9.4111052870        6.2112974247       -4.0390666095
 H        -9.1315577672        7.0582842637       -2.5989448416
 H        -8.9054049024        4.0242096188       -3.0957677621
 H       -10.3876013807        4.6922836187       -3.0357175732
 H        -9.9536949417        5.2004693325        2.2414646422
 H        -8.3423777972        4.9040564451        1.5657555144
 H        -7.7942504449        4.3410259956        3.7897156647
 H        -8.3774141694        2.6429639915        3.1352733229
 H       -11.2154466679        1.6581075117        5.5466082871
 H       -10.7531719462        1.1636662858        7.2120577631
 H       -11.6218818685       -0.7983485128        5.7913386624
 H       -10.0099745294       -1.0965752613        6.2383012235
 H       -13.4058790850       -3.2275169377        2.6894466554
 H       -13.2274582266       -2.4411961455        1.1329654577
 H       -15.5360450179       -1.7978751419        2.0670301256
 H       -14.2730330473       -0.6658642808        1.5552097274
 H       -17.0132842569        2.9530917238        1.9531728557
 H       -16.3035620649        3.9619207304        3.3450620398
 H       -17.4884427390        2.7576781740        3.8510925801
 H       -16.7320153014       -0.1100216247        1.9479026865
 H       -17.8805361690        0.6759810090        2.9532585038
 H       -17.6503849136       -0.9714480623        3.4031004456
 H       -16.8075474968       -0.1532232261        5.5076635620
 H       -16.7153760569        1.6319189757        5.3538797148
 H       -15.2280880238        0.6383484655        5.8633378445
 H        -9.5603894385       -3.3787622680        2.2342768277
 H        -9.0146558209       -1.6300788586        2.0893071056
 H       -10.4864310256       -2.1984111415        1.3273331080
 H       -10.2900418742       -2.9458455620        5.0445798958
 H       -10.9987321119       -3.8851791007        3.8641735064
 H       -11.9425329148       -2.8985518570        5.0286721292
 H        -7.6272114256        4.9330122790        5.8673144221
 H        -7.0092883285        3.3775448599        5.7971801187
 H        -7.5010116137        4.0873646028        7.3338189032
 H        -9.8922912209        2.9621964269        8.0316320672
 H       -11.1944042426        3.4685114831        6.8983814053
 H        -9.9315804614        4.6381781664        7.5745292067
 H       -10.0578451377        1.8075199715       -1.9775800968
 H       -10.6156190695        1.4169124705       -0.3159844240
 H        -9.0346487829        0.9486311041       -0.8412333910
 H        -7.2048118946        2.9542931018       -1.4380103458
 H        -6.8658681151        2.3142423636        0.1184704590
 H        -7.1287037896        4.0747588327       -0.0047642503
 H        -7.5723497517        4.0280748390       -5.3271479044
 H        -6.9467744925        5.0859662963       -6.6193697641
 H        -8.4139769542        5.6199023689       -5.6453483729
 H        -4.7979673059        5.6264010310       -3.6458257794
 H        -4.5736150317        4.9648952140       -5.4511875070
 H        -5.2198297932        4.0764535585       -4.0039082425
 H        -9.4346604248       10.2314528113       -7.8591890238
 H        -8.1657505144       10.3267549092       -6.6479321039
 H        -8.7796131505        8.8063971750       -7.0197528391
 H        -9.1834000668        8.3930318049       -9.4670301996
 H        -7.8105099600        8.3639705673      -10.5048740350
 H        -8.7201701398        9.8342693050      -10.3283103844
 Na      -12.0957955492        1.9332768992        3.1931336607
