117

 C       -13.5813657447        0.7182091626      -10.1736544570
 C       -12.7366464218       -0.4782684226       -9.6823572893
 O       -13.3140981533       -1.4571021650       -9.2404442820
 C       -11.1220444660       -0.4916772481       -9.9021551858
 C       -10.4508157706       -0.3299056104       -8.4574933249
 O        -9.3249438958       -0.7068319621       -8.1839133628
 C       -11.2899391987        0.4315565632       -7.3735590374
 C       -10.4966724439        0.3476196220       -5.9689831304
 C       -11.2703168557        0.9881400179       -4.7891687812
 O       -12.3257357672        1.6372620469       -4.8377539623
 C       -10.7190556959        0.7907816044       -3.3901480084
 C       -10.3561445298        2.1004004179       -2.7864209731
 O        -9.2038771693        2.3238523452       -2.4526566247
 C       -11.4800560777        3.0106906564       -2.3670743383
 C       -11.1042293106        4.4878224642       -2.2484727883
 C       -10.6891377062        4.9802715674       -0.8359372908
 O       -10.6690197068        4.2146919170        0.1303061920
 C       -10.0042786439        6.3576770293       -0.6778160946
 C       -10.7231472830        7.0313076027        0.5467563093
 O       -10.6651528889        6.4863132754        1.6340913658
 C       -11.5689979093        8.2243468185        0.3778920343
 C       -12.3606097158        8.4545318812        1.6437742656
 C       -11.3584765725        8.3265231199        2.8894790058
 O       -10.3501983974        9.0456806497        2.8740362639
 C       -11.7871019068        7.3243987550        4.0804671512
 C       -10.4476430153        6.6229895999        4.4483389491
 O       -10.3472018399        5.4108942638        4.2414705800
 C        -9.3701574231        7.4551494282        5.1841480553
 C        -8.0922823863        6.5862459800        5.1687922194
 C        -7.9402613292        5.7808303266        6.4868208133
 O        -8.8023746846        5.7341777626        7.3707359438
 C        -6.6501980940        5.0306726437        6.7865463511
 C        -6.7473768158        3.8167494842        5.6988416443
 O        -6.2138685109        3.8657986859        4.6437678512
 C        -7.7944056381        2.6515631470        6.0168905654
 C        -7.8500341183        1.4607653996        4.9583112611
 C        -8.3326790155        1.9842718869        3.5921622326
 O        -9.4879347035        2.3422569925        3.4731860043
 C        -7.2118610425        1.8797995126        2.4406033742
 C        -6.8394602284        3.3567125315        2.0791839085
 O        -7.5993588631        4.2815634518        2.2855453869
 C        -5.4886825707        3.6270397470        1.3364128228
 C        -5.8688842775        1.1171060319        2.8774055385
 C        -7.9016974896        1.3228224577        1.1655265333
 C        -5.4288366297        5.9443806800        6.5866061919
 C        -6.6380583913        4.4644079971        8.2341087143
 C       -12.3589072263        8.2422330896        5.1890100411
 C       -12.9517543178        6.4012758514        3.8972781795
 C        -8.5464012002        5.9505928454       -0.4448611620
 C       -10.0176245652        7.1923578842       -1.9920218076
 C       -11.7591716448        0.1123164888       -2.6009545595
 C        -9.4765220875       -0.1415012045       -3.3907310073
 C       -10.8049546315       -1.9240047660      -10.5540104265
 C       -10.5512643699        0.7746284748      -10.6717345127
 H       -14.6450003696        0.3446505135      -10.1614003969
 H       -13.2500293733        1.0093800924      -11.1108031037
 H       -13.4591482582        1.5115278963       -9.4663191654
 H       -12.3034079354       -0.0043409875       -7.2307666249
 H       -11.3901972820        1.5115408868       -7.5772611574
 H        -9.4531367669        0.7008783946       -6.1286929624
 H       -10.3274245662       -0.7497466933       -5.9037155979
 H       -11.8297646487        2.5036542211       -1.4479787861
 H       -12.4060553148        2.8913641840       -2.9504420306
 H       -11.8951097054        5.0647650757       -2.6621277398
 H       -10.3301788164        4.8327396886       -2.9180474847
 H       -12.2303911966        8.1090017940       -0.5420134228
 H       -10.8476071220        8.9781846939        0.1568786432
 H       -13.2704865221        7.8663280242        1.7173283039
 H       -12.7802680439        9.4932094648        1.6060231531
 H        -9.5790691634        7.5565872658        6.2601247129
 H        -9.1351121403        8.4726481540        4.8299275113
 H        -7.1383015127        7.0855427921        4.9772137989
 H        -8.1225545508        5.7528535165        4.4864490579
 H        -8.7404610294        3.1490555560        5.9134260001
 H        -7.8109879895        2.2447575774        7.0284017861
 H        -8.6783832736        0.7143641221        5.2714280759
 H        -6.8696349242        0.9180062042        4.8996636268
 H        -5.4846704214        3.0898724288        0.3485132725
 H        -4.7569120283        3.2863098572        2.0027309042
 H        -5.5348120222        4.7263549450        1.1945026159
 H        -6.0535399260        0.2549623005        3.4333148743
 H        -5.0753694055        1.6091409458        3.4591556576
 H        -5.3813322275        0.7743538909        1.8713410341
 H        -7.1135652088        0.9557108171        0.5212810570
 H        -8.4759764431        2.1757315854        0.5998071437
 H        -8.4692878561        0.4640989836        1.4616018244
 H        -4.9743133319        5.8402282963        5.5578834467
 H        -4.7146420373        5.5699081677        7.3236225404
 H        -5.6727261365        6.9468960189        6.7174135811
 H        -5.6843671360        3.9379179747        8.5120108387
 H        -7.5072102235        3.8879917583        8.7174291002
 H        -6.5990712368        5.3312839787        8.9491987382
 H       -13.2546864675        8.7063090910        4.7618592014
 H       -11.6333494754        9.0759465648        5.4569169841
 H       -12.7231093895        7.7582003947        6.0792424826
 H       -12.9345898216        5.5803939147        3.1362691139
 H       -13.8064613459        6.9796107001        3.7638175354
 H       -13.1813170322        5.9652698261        4.8290287227
 H        -7.9541868766        6.8858367026       -0.5720520039
 H        -8.2361117174        5.0501764362       -1.0171329541
 H        -8.3396246047        5.7269284458        0.6332570550
 H        -9.5792883083        6.4527462771       -2.6576969467
 H        -9.4868104233        8.1015921963       -1.8159043322
 H       -11.0100173038        7.3850729174       -2.3901600303
 H       -11.8598902854       -0.9210113193       -2.9496287269
 H       -12.7387994019        0.5390375589       -2.5101631006
 H       -11.3368047243        0.0695723691       -1.6488712135
 H        -9.5320187855       -1.0566806884       -3.9137320119
 H        -9.3225655929       -0.4478402968       -2.3650585666
 H        -8.6187003540        0.5256904364       -3.5258333725
 H       -11.6580959431       -2.4598073375      -10.3077399128
 H        -9.8196768246       -2.2761038006      -10.1840733526
 H       -10.8163506781       -1.9065561299      -11.6476459047
 H       -10.9321356151        1.7349953194      -10.2810041491
 H       -10.6471094380        0.9011268963      -11.7920052010
 H        -9.5064560010        0.9831095150      -10.3907637449
 Na      -10.2810800418        4.2206219819        2.2524455888
