117

 C        -5.7770731473       10.8971545948      -10.2221127580
 C        -7.0081333753       10.8427756463       -9.3604781893
 O        -7.6969339170       11.8359057778       -9.0096256028
 C        -7.4302080821        9.4149431203       -8.8205107484
 C        -6.2850140159        8.4059667997       -8.2418580059
 O        -6.2661603519        7.2595674035       -8.6963637029
 C        -5.4862619478        8.7521703730       -7.0628783838
 C        -5.1788340714        7.6504809683       -5.9355584910
 C        -6.3861439695        7.1211067734       -5.2041531014
 O        -7.3032494389        7.8472169571       -4.8173554994
 C        -6.6154239523        5.5704619325       -4.8600017853
 C        -7.1030016566        5.8481136668       -3.4379462266
 O        -6.3462990125        5.8467250088       -2.4995866675
 C        -8.5810809789        5.9838165810       -3.2210511000
 C        -9.4229528855        4.8425820955       -2.6932764054
 C        -9.5218626456        4.8048757302       -1.1723843419
 O        -9.6503489478        5.8323141182       -0.4696297451
 C        -9.3454608557        3.3403218157       -0.4665645899
 C        -9.8126636904        3.3859243412        0.9326732243
 O       -10.7446197699        2.7165892140        1.3297764508
 C        -9.0859004624        4.3677878907        1.8227564383
 C        -8.5510589139        3.8003554351        3.1118814073
 C        -9.6315333498        3.6007988937        4.2959828349
 O       -10.8338569583        3.6152851049        4.1040912163
 C        -9.2234687737        3.4148463354        5.7915497331
 C        -9.5349536854        1.8649254056        5.9979922675
 O        -8.5453908742        1.1260476809        5.9112319946
 C       -10.8244910448        1.2938786489        6.5383931034
 C       -10.8278216669       -0.1272905340        5.9257270698
 C       -10.7153648160       -0.2620052367        4.4633870191
 O       -10.1454047511        0.6407082312        3.8656018510
 C       -11.0501912907       -1.5911489726        3.6413376924
 C       -12.2003917912       -1.3394833786        2.6319436862
 O       -12.2411679108       -0.3702195641        1.9115614735
 C       -13.4007931045       -2.2558010348        2.6161380104
 C       -14.6422648430       -1.4212452515        2.4095036142
 C       -14.7340587318       -0.4757777923        3.6128752125
 O       -13.6624019671       -0.3856352810        4.2765622157
 C       -15.7773223463        0.5948499736        4.0029305267
 C       -15.2507092699        2.1464708183        3.4946043904
 O       -14.1515205743        2.3615602341        3.0529575735
 C       -16.1234959002        3.3976451356        3.4492170033
 C       -17.1749592098        0.4631933994        3.1443105056
 C       -15.9770681819        0.3154843759        5.5273307417
 C        -9.5882936685       -1.7890451612        2.9007904059
 C       -11.3288002254       -2.8650675756        4.3779134752
 C        -7.7731428693        3.6001254608        6.1530763197
 C       -10.2559785893        4.2986902956        6.5712096815
 C       -10.1262231060        2.2467898099       -1.2732326054
 C        -7.8086929786        2.9485614306       -0.4134357944
 C        -7.8020538365        4.9949623454       -5.6835189329
 C        -5.4623712645        4.5683374374       -4.9035711947
 C        -8.3222726037        9.7386751781       -7.5658013962
 C        -8.1861902470        8.5731141345       -9.8955504549
 H        -6.0569507238       10.6236166128      -11.2354277302
 H        -5.0481115968       10.0740567322       -9.9525535355
 H        -5.4810279603       11.8324535768      -10.2740866127
 H        -5.9679539563        9.4361819991       -6.4216683843
 H        -4.5554684351        9.3530772242       -7.2732759933
 H        -4.4835418330        8.1733051293       -5.3606456660
 H        -4.9362780391        6.6807495955       -6.4751745779
 H        -8.9908563125        6.3571563118       -4.1587953371
 H        -8.8634011296        6.7399912626       -2.5037654330
 H        -9.0662386064        3.8445337129       -3.1288518807
 H       -10.4622135334        5.1116105423       -3.0974368410
 H        -9.6273525309        5.2591063329        2.1176131775
 H        -8.2795901899        4.8157911046        1.2991816065
 H        -7.8289102838        4.6090474021        3.2894612770
 H        -8.0108519261        2.8644299712        2.9418813359
 H       -11.7058633032        1.8692333022        6.4326131359
 H       -10.7560588308        1.0832621424        7.6660676125
 H       -11.7489767777       -0.5401130477        6.2549884445
 H       -10.1591475804       -0.8216384932        6.3346038226
 H       -13.7224809995       -2.8997114394        3.4799346099
 H       -13.4306495521       -2.8815432957        1.7460177898
 H       -15.6177229514       -2.0517033372        2.1525207821
 H       -14.5863204469       -0.7871262578        1.5019584212
 H       -16.6388704612        3.3680600005        2.5167919101
 H       -15.4464233511        4.2465742862        3.4488862566
 H       -16.6662726743        3.5867868245        4.3509162249
 H       -16.9107334875        0.7183060602        2.1502420337
 H       -17.9113685518        1.0878464253        3.5447740268
 H       -17.5923128420       -0.5655188067        3.4198391826
 H       -16.3327483556       -0.7507888513        5.5993645945
 H       -16.8888872276        0.8970702608        5.9774214262
 H       -15.0933335198        0.4871039350        6.0659109943
 H        -9.6308135719       -2.6426682161        2.2061133930
 H        -8.8609326476       -1.8252465399        3.7352004765
 H        -9.4635836484       -0.9850701919        2.2148535123
 H       -10.4541689034       -3.4137467994        4.8047343593
 H       -11.7000368331       -3.6643052713        3.6264120615
 H       -12.2183947682       -2.7288780749        5.0596840135
 H        -7.2876561907        4.5209464591        5.8056561038
 H        -7.1802758261        2.7732504081        5.6721162579
 H        -7.6080632873        3.5373667119        7.2096715128
 H       -10.1042922255        4.2983228833        7.6473244279
 H       -11.2748306934        4.1040745790        6.2728219089
 H       -10.0969765943        5.2898851773        6.2524948261
 H       -11.2664273877        2.2968879519       -1.0917013340
 H        -9.9396300772        1.2105427880       -1.1269951191
 H       -10.0509918937        2.5545904455       -2.2406863762
 H        -7.3590755448        3.0334784291       -1.3932041053
 H        -7.5694100817        1.9808789498       -0.0052581058
 H        -7.2888141258        3.6958450826        0.1557501933
 H        -8.3041663594        4.1238381359       -5.3139252043
 H        -7.3215798887        4.8721033135       -6.6141076972
 H        -8.5850713540        5.7397365269       -5.8655591143
 H        -4.8629934143        4.7397216857       -4.0392810143
 H        -4.9679863450        4.7262267306       -5.8975835156
 H        -5.8393843925        3.4788145851       -5.0461261173
 H        -9.3463098022        9.7972439732       -7.9505626910
 H        -8.0098490884       10.6379884771       -7.0585070659
 H        -8.2811029184        8.9183591379       -6.7809604783
 H        -7.7847617749        7.5241152789       -9.8941211850
 H        -7.8641700604        8.9831142147      -10.9111586956
 H        -9.2501474334        8.7079951406       -9.7464610294
 Na      -11.8508001243        1.7645261959        2.8195259048
