117

 C        -5.2067441852       10.0566488454      -11.0076552280
 C        -6.1321246427       10.1988022964       -9.7215929386
 O        -6.6821433140       11.2053958497       -9.4514900942
 C        -6.6550476066        8.9142471031       -9.2134668705
 C        -5.6836934809        7.9092598853       -8.5088993724
 O        -5.9348949399        6.7188686176       -8.4465336202
 C        -4.8608228730        8.6731340013       -7.3892041884
 C        -5.0133632689        7.9328152489       -6.0055772425
 C        -6.3925615599        7.2523187307       -5.5942717992
 O        -7.2624486863        8.1140183384       -5.3682135480
 C        -6.5831460923        5.7982088119       -5.3339050337
 C        -7.2535356416        5.4387253193       -3.8707167664
 O        -6.9136367862        4.4275576922       -3.3409730315
 C        -8.1986034350        6.5608354406       -3.2868853155
 C        -9.3726317961        5.7707890222       -2.5618598441
 C        -9.4453069130        5.1329695769       -1.1556799566
 O        -9.2130563580        5.7999054541       -0.2262385049
 C        -9.6448636947        3.5482613660       -0.9968051672
 C        -9.9621493123        3.2118712978        0.4295604296
 O       -10.7941836827        2.2744540469        0.6303714282
 C        -9.1808108947        3.8348221426        1.7194664917
 C        -9.1585030500        2.8304055265        2.8059466966
 C       -10.0052049290        3.2585808346        4.1015736088
 O       -11.1896083632        3.4666851753        3.9499490719
 C        -9.4508315210        3.5684920430        5.4697181839
 C        -9.7315120353        2.3533646585        6.4438452693
 O        -8.8955580966        1.7260365862        6.9630034906
 C       -11.1823040211        1.7404838892        6.3993469222
 C       -11.1706603581        0.1841726948        6.3287848209
 C       -10.7417058841       -0.3819415175        4.8726008002
 O       -10.3419790163        0.4377153671        4.0357405826
 C       -11.2251444586       -1.8684158679        4.5643700678
 C       -12.3453233490       -1.5120843330        3.4731724434
 O       -11.9961039929       -0.7846643362        2.5564767432
 C       -13.7633284488       -2.2694874151        3.5879386575
 C       -14.8524486817       -1.1538073665        3.2080654770
 C       -14.6824307435        0.0319604679        4.1277158357
 O       -13.4955086989        0.1040030674        4.5571588000
 C       -15.8039199142        1.1238618048        4.3668923525
 C       -15.2571779101        2.5589514985        4.1020345828
 O       -14.3034284560        2.7336672969        3.4062343389
 C       -15.9223764677        3.7568779919        4.7603987990
 C       -16.9845312477        0.9239710420        3.3564558352
 C       -16.2786406143        1.1028581648        5.8253229595
 C       -10.2616581108       -2.6520450509        3.4721425938
 C       -11.5340635894       -2.7708978342        5.7280062444
 C        -7.9424394112        3.8425359089        5.6778138386
 C       -10.3092590470        4.8207503268        5.9868177472
 C       -10.8679901843        3.1416459843       -1.9274256188
 C        -8.3024805917        2.8793274859       -1.4434695850
 C        -7.7229795238        5.2330706938       -6.2715782779
 C        -5.2978006306        4.9119378187       -5.4492719352
 C        -7.8882650119        9.1572387704       -8.1847563515
 C        -7.2252953432        8.1606093368      -10.4640764358
 H        -5.8694192494       10.0742005047      -11.8103438690
 H        -4.6864671308        9.1804173057      -11.1393167941
 H        -4.4711320231       10.9724610860      -11.0565832865
 H        -5.3413648784        9.6249318224       -7.1281428516
 H        -3.8543718584        8.9963181516       -7.7466318446
 H        -4.7179824133        8.6038338271       -5.2269017085
 H        -4.3146797164        7.2009772219       -5.8967151713
 H        -8.6284982852        7.1261228067       -4.1498336856
 H        -7.7046791141        7.1522038091       -2.5155028684
 H        -9.6327790095        5.0114277111       -3.2076131499
 H       -10.1755272765        6.4952594161       -2.5969534888
 H        -9.6676307886        4.7079031787        2.2787692732
 H        -8.2586867415        4.1852755405        1.4467327002
 H        -8.1271342708        2.6527285840        3.1577674386
 H        -9.3073549891        1.7917481032        2.5740099153
 H       -11.7627426891        2.2880976767        5.5857696352
 H       -11.6971523041        1.9385764730        7.4156449726
 H       -12.1353015527       -0.1898766386        6.5807134876
 H       -10.4631103451       -0.2408153710        7.0318520951
 H       -13.9036824031       -2.7370011704        4.5776194062
 H       -13.8376747819       -3.1434209892        2.8926820392
 H       -15.8078699293       -1.6153398671        3.2636804362
 H       -14.8921886653       -0.6042705746        2.2545086403
 H       -15.5464205981        4.7260449153        4.3666367508
 H       -15.6340450538        3.9267924897        5.8433981225
 H       -16.9986492813        3.9787405601        4.8010498273
 H       -16.6153646323        1.0074796411        2.2825704089
 H       -17.7044887581        1.8037289455        3.5221610833
 H       -17.4108129012       -0.0671516294        3.4380889606
 H       -16.7756834666        0.2846247635        6.1803895688
 H       -16.8086523203        1.9638930979        5.8710571595
 H       -15.4049574183        1.2260987642        6.5293944375
 H       -10.6769292779       -3.7101271774        3.2458654170
 H        -9.2570328612       -2.7779509233        3.7820827033
 H       -10.1154210780       -1.9228903311        2.6510520078
 H       -10.7262445834       -2.9044964386        6.4115132371
 H       -11.8763992399       -3.6997115091        5.4062929248
 H       -12.2803832331       -2.3139371188        6.2566937668
 H        -7.5089388540        4.5841149388        4.9713652381
 H        -7.3935989084        2.8968359633        5.6581027729
 H        -7.8472160846        4.2201654205        6.7019557314
 H        -9.8674667915        5.0394915433        7.0103864889
 H       -11.3727941919        4.5239434297        6.1507821492
 H       -10.1158002969        5.6980663602        5.3814995021
 H       -10.5020733782        2.6014603010       -2.7189971205
 H       -11.3213450042        4.1319675599       -2.3776288745
 H       -11.6123737352        2.4769104382       -1.4342344780
 H        -8.2819953953        2.7873824854       -2.5471517792
 H        -8.3222844103        1.8579848942       -1.0120198132
 H        -7.4173554902        3.5090377177       -1.0496289610
 H        -8.0668231461        4.2627716009       -5.7881415205
 H        -7.1930317912        4.9408267175       -7.2099270056
 H        -8.5050674705        5.9255457705       -6.4415311900
 H        -4.5976913342        5.4432280111       -4.8633632663
 H        -4.7501580207        4.7497322316       -6.3691290621
 H        -5.6129063212        4.1134667324       -4.8712563306
 H        -8.8306192525        8.9980293176       -8.7159832180
 H        -8.0440624565       10.1558566854       -7.7513706843
 H        -7.9240307705        8.4044781897       -7.4303789713
 H        -7.4558145472        7.1963563516      -10.0917789435
 H        -6.5889116151        8.2770245099      -11.3114963367
 H        -8.1444322374        8.6007274114      -10.6993005554
 Na      -12.0849814453        1.6938759770        2.9740638714
