117

 C        -4.7148985236        9.6724634916      -11.9580479150
 C        -5.2387613728        9.6386665170      -10.5280371560
 O        -4.8558366611       10.5151585251       -9.7557751177
 C        -6.2882705693        8.6623346227      -10.0510945285
 C        -5.6596130949        7.9224066036       -8.7008083165
 O        -5.0136518895        6.9484393502       -8.9598677532
 C        -5.6890815451        8.7196325280       -7.3157511640
 C        -5.3125195767        8.1926656220       -5.8843043354
 C        -6.4774153383        7.4816889709       -5.0733908542
 O        -7.1483263930        8.1599199488       -4.3505707702
 C        -6.6696634028        5.9080218711       -5.3939032249
 C        -7.1045323357        5.2341729830       -3.9668064125
 O        -6.5510041890        4.3002754907       -3.4620186282
 C        -8.1608447323        5.9783976947       -3.1233151598
 C        -9.3421937427        5.1555117682       -2.7680467705
 C        -9.2781585482        4.6395300847       -1.2936074210
 O        -8.6450359422        5.3160936067       -0.5022450715
 C       -10.1069161954        3.3495721898       -0.9745469471
 C       -10.2893030429        3.1410170859        0.5912484355
 O       -11.3792915345        2.7676580523        0.8995863134
 C        -8.9811703345        3.4104275490        1.4518361861
 C        -9.1549527543        2.5748244816        2.8420316902
 C       -10.0711011134        3.1676537461        3.9006868939
 O       -11.2719925462        2.9577659085        4.0435290061
 C        -9.3951982764        3.7779463941        5.2036285736
 C        -9.4420401972        2.5816989709        6.2889407602
 O        -8.4232133036        2.1307940314        6.7571545072
 C       -10.7507593660        1.8158274334        6.8604543025
 C       -10.6015264813        0.2453757921        6.6668107183
 C       -10.9261486674       -0.1657889491        5.2581008619
 O       -10.6962981978        0.5120420313        4.2983979557
 C       -11.5104007643       -1.6466241016        5.0855552755
 C       -12.7241396658       -1.5218735762        4.2885354762
 O       -12.5802420811       -1.0256286852        3.1899505769
 C       -14.1547071529       -2.1657931470        4.5118395236
 C       -15.2589931748       -1.1305366136        4.0770233873
 C       -14.8450108692        0.2403278169        4.4721897692
 O       -13.7526745843        0.4395324503        4.9046458036
 C       -15.8931073890        1.4655469179        4.3457737650
 C       -15.1144949051        2.8740352918        4.1409545243
 O       -14.0788758697        2.8500068001        3.4723710521
 C       -15.6281814290        4.1514866471        4.6287173841
 C       -16.8726631924        1.2219385142        3.1029804868
 C       -16.7941850202        1.6763189607        5.6473738743
 C       -10.5604515387       -2.5771625338        4.1465191258
 C       -11.6520283876       -2.2717248820        6.4259068294
 C        -7.9572465475        4.2163527278        5.0273296291
 C       -10.4897906159        4.9556573032        5.7826336596
 C       -11.5209791583        3.6711133657       -1.5114716848
 C        -9.4841856175        2.2267497607       -1.7698574447
 C        -7.9131899769        5.6007052570       -6.2259665917
 C        -5.4472528015        5.2210655052       -6.0713106309
 C        -7.6727993475        9.2096369816       -9.5222139195
 C        -6.6731486934        7.5043379940      -10.9732070002
 H        -5.4547289298        9.4556556016      -12.6200615197
 H        -3.9335311639        8.8871339485      -12.0381960267
 H        -4.0814030317       10.5807588389      -12.3184728057
 H        -6.7235220229        9.0191774352       -7.1843656391
 H        -5.1352761645        9.6244119080       -7.5981458662
 H        -4.7552466543        8.9913475865       -5.3402458875
 H        -4.3209344865        7.6039406322       -5.8198614772
 H        -8.6183773039        6.8085836026       -3.6333412561
 H        -7.7004062124        6.4082827037       -2.2144234894
 H        -9.5260013837        4.2365556275       -3.4611825077
 H       -10.3371369731        5.6226493428       -3.0208472213
 H        -8.8252566402        4.4494434005        1.5810881938
 H        -8.1597741093        2.8691085180        0.9237384133
 H        -8.1635471109        2.4906745437        3.3113601264
 H        -9.3574202155        1.5123879137        2.6552175448
 H       -11.6777120891        1.9931188921        6.4253650698
 H       -10.7275962384        2.0712435654        7.9504601969
 H       -11.3038128860       -0.2220205947        7.2977773298
 H        -9.6365067607       -0.0675448124        6.8659942526
 H       -14.2344729313       -2.4471436237        5.5899996661
 H       -14.0845292389       -3.0543636692        3.9558711754
 H       -16.2605431997       -1.4613395213        4.6837715218
 H       -15.4879392852       -1.1897110791        2.9900348689
 H       -15.1937340655        5.0243593257        4.2824938487
 H       -15.6032269391        4.3363498384        5.6657985251
 H       -16.6292494083        4.4042832844        4.4571240109
 H       -16.2571810007        1.2587882965        2.2161383349
 H       -17.6859396315        1.8996937330        3.0596915032
 H       -17.4980556777        0.2270646033        3.1172062476
 H       -17.6736849920        1.0759751059        5.5463063928
 H       -17.3335914213        2.6657294920        5.7050993142
 H       -16.2870154664        1.5199996890        6.6923722295
 H        -9.8703148258       -2.0566827258        3.4120967240
 H       -11.2124810878       -3.1712946649        3.4380341172
 H        -9.9056015248       -3.2958709804        4.6258911605
 H       -10.7088331899       -2.5033405968        6.8490864131
 H       -12.2820562108       -3.1328982053        6.5633294676
 H       -12.1914429996       -1.5660574911        6.9460884986
 H        -7.9262850171        4.9031728202        4.1997322452
 H        -7.4220951665        3.3113422481        4.6612548017
 H        -7.5703781950        4.6435997723        5.9162401775
 H       -10.7801075440        4.6961146458        6.8277120523
 H       -11.3704924100        4.8974536445        5.1406306309
 H       -10.0262541914        5.9084191416        5.7244938413
 H       -11.4522808861        3.2925036190       -2.4925037471
 H       -11.8893530110        4.7506701351       -1.3337163659
 H       -12.1289837127        3.0150701393       -1.0301546735
 H        -9.9496750355        2.4288590821       -2.7255495141
 H        -9.7728279417        1.2033116774       -1.4177499599
 H        -8.3210989134        2.2936100637       -1.6717681486
 H        -8.2204913142        4.6081523673       -5.8947398665
 H        -7.7581316370        5.4574777814       -7.2171158764
 H        -8.7429910842        6.2789117547       -5.9191408507
 H        -4.7470213070        5.2746658627       -5.2966526098
 H        -5.2971066478        5.7974000260       -6.9653850613
 H        -5.5860844011        4.1449469573       -6.3111260696
 H        -8.3074058274        9.5452655708      -10.3623665695
 H        -7.8014566812        9.9671915372       -8.7347464582
 H        -8.1952098809        8.3992110223       -8.9273406532
 H        -7.1150235438        6.6837523227      -10.4867814441
 H        -5.8299105988        7.0160754144      -11.4000963906
 H        -7.3345103598        7.9030255775      -11.6624908638
 Na      -12.3459149132        1.4711438861        2.7682889952
