117

 C        -4.6843161390        9.4435464659      -12.0693626912
 C        -4.9999428862        9.4234934655      -10.6141463454
 O        -4.4776902470       10.2552965197       -9.8656491773
 C        -6.0678362638        8.5705482824      -10.0960992973
 C        -5.6139215411        7.9123621372       -8.6583787437
 O        -4.9512828906        6.8952911522       -8.5592199140
 C        -6.0069211987        8.8276603531       -7.5415365479
 C        -5.5322067545        8.2892956470       -6.1949821426
 C        -6.4967515247        7.5508658811       -5.2704261464
 O        -6.7818799142        8.0036958699       -4.1636014269
 C        -6.7490207498        5.9530230316       -5.4168664554
 C        -7.0886810774        5.3815348010       -4.0474903155
 O        -6.3750140216        4.4489410518       -3.6106208700
 C        -8.2752724593        5.9214293744       -3.2990367965
 C        -9.2999539329        4.8248494635       -2.8203914322
 C        -9.3097875601        4.4978364616       -1.3589554068
 O        -8.4975934760        5.0692045107       -0.6304214234
 C       -10.4040602739        3.4284700705       -0.9050967096
 C       -10.4233560553        2.9966922162        0.6825744392
 O       -11.4874841854        2.4108826277        0.9747393697
 C        -9.1227519829        3.1287757399        1.5654507897
 C        -9.1297812889        2.4589583886        2.8703528583
 C       -10.0600118498        3.1850870179        3.9957895895
 O       -11.2891528178        3.1699585711        3.8665704468
 C        -9.3506438848        3.9017978013        5.2675189209
 C        -9.1648101313        2.6414712485        6.2727838097
 O        -8.0541559199        2.1465269381        6.3441860823
 C       -10.4805543304        1.9765636540        6.8433913601
 C       -10.5507512313        0.3573410093        6.8726909692
 C       -11.1174679530       -0.2414545263        5.5067311255
 O       -10.8176015795        0.3334507150        4.4743582888
 C       -11.6229065950       -1.6931086891        5.2293826164
 C       -12.9107563360       -1.4824896271        4.3402745094
 O       -12.8942867619       -0.9554493310        3.2361305220
 C       -14.2931556637       -1.9227157060        4.8428256105
 C       -15.3374843254       -0.9945603331        4.3972447734
 C       -14.9393455162        0.4813740201        4.6458278301
 O       -14.0203565546        0.8176783214        5.4141072401
 C       -15.9677218854        1.5573536550        4.2211864786
 C       -15.0414439245        2.8699200229        3.9600646892
 O       -13.9472276884        2.8814808459        3.4451011171
 C       -15.6014466334        4.1993096387        4.4686968943
 C       -16.8100815657        1.2255489689        3.0079256407
 C       -16.7759877119        1.6274103112        5.4800049195
 C       -10.4726144898       -2.4000271711        4.5013976287
 C       -11.8741111590       -2.5268930515        6.4530249922
 C        -7.9228853281        4.5120360412        4.9098364349
 C       -10.3502104544        4.9893208110        5.7968370968
 C       -11.7694205767        3.9163462753       -1.4643653266
 C        -9.8455501297        2.0601995683       -1.5441710296
 C        -7.9733827036        5.7265905909       -6.3974617090
 C        -5.5453336937        5.2402694816       -6.0492670933
 C        -7.3328223500        9.3733710389      -10.0191247198
 C        -6.3045351286        7.4639965831      -11.0601193346
 H        -5.6429254889        9.8454002198      -12.5984390946
 H        -4.2135513655        8.5817497016      -12.5866060117
 H        -3.9659320806       10.1765816881      -12.1758202930
 H        -7.0883017555        9.0424880480       -7.4276855751
 H        -5.4480405388        9.6994214209       -7.9512154343
 H        -5.0964338376        9.0811760312       -5.6415144630
 H        -4.6630331004        7.7207888962       -6.2005525134
 H        -8.7568549211        6.7474758540       -3.8744942261
 H        -8.0490744029        6.4700024516       -2.3413282172
 H        -9.2985278773        3.8789563443       -3.2361147477
 H       -10.3157294802        5.0533437109       -3.1015201148
 H        -8.9048030823        4.2260595107        1.7291501797
 H        -8.3936443845        2.5951695591        0.9763619274
 H        -8.1375095751        2.0659538111        3.1235546739
 H        -9.7730454902        1.5398288776        2.7025821690
 H       -11.3749099050        2.2277650826        6.1599204211
 H       -10.6283425222        2.3615170321        7.8247520095
 H       -11.1711970947       -0.0590452336        7.7217596322
 H        -9.4074877542        0.1150060490        6.9676304099
 H       -14.3586768566       -2.0819152048        5.8913889205
 H       -14.3591071477       -2.9092467340        4.2543660910
 H       -16.1041546474       -1.3522033056        4.9539890649
 H       -15.5245507507       -1.1203789089        3.3307965667
 H       -15.0917365888        5.1366995431        4.2237195681
 H       -15.7446613944        4.3869033438        5.5273319035
 H       -16.6479651443        4.4898984951        4.2323984644
 H       -16.2356550552        1.0215707793        2.1322825266
 H       -17.4974417770        2.0692587099        2.7856758409
 H       -17.4644538410        0.4083320984        3.1659629109
 H       -17.2155724637        0.6992322279        5.9217987229
 H       -17.6885430579        2.1994223640        5.4095997134
 H       -16.1555270542        2.0883748918        6.1061656069
 H        -9.5341927761       -2.0334254305        4.7785472026
 H       -10.5441298771       -2.4707613480        3.4432267081
 H       -10.3344086646       -3.4743231760        4.7378258607
 H       -11.1302976108       -2.3750757857        7.2877673004
 H       -11.8240297938       -3.6306425306        6.2245963512
 H       -12.9896920950       -2.5281251103        6.7546396795
 H        -7.9183299838        5.1190055577        3.9942155070
 H        -7.2632401822        3.6681664967        4.8146439489
 H        -7.5700264965        5.0474709116        5.8420588167
 H       -10.7459880656        4.6810542975        6.6927708295
 H       -11.1089698715        5.1386350144        5.0665257312
 H        -9.8252947781        5.9545745409        5.8927963378
 H       -11.6822331863        3.7402045308       -2.5862335075
 H       -11.8432105104        4.9214410532       -1.2282443271
 H       -12.6519879923        3.3249027247       -1.0579295109
 H        -9.9910387609        2.1235145446       -2.6361591246
 H       -10.5017661147        1.2789487347       -1.1608075764
 H        -8.8621075277        1.8901947465       -1.2738705995
 H        -8.1014551187        4.7139485349       -6.8441821295
 H        -7.8284474341        6.4790396520       -7.2635497997
 H        -8.9605616542        6.0057165327       -5.9041286579
 H        -4.6182636354        5.3183741701       -5.3369579594
 H        -5.5225675056        5.5284379986       -7.1459083584
 H        -5.9168355624        4.1704436327       -6.0811538179
 H        -7.8793545033        9.3580812469      -10.9791626774
 H        -7.2150966923       10.4326374093       -9.7473831073
 H        -8.0218457017        9.1867667293       -9.2022297464
 H        -6.7625350769        6.5974353839      -10.5193110082
 H        -5.4036912871        6.9824975526      -11.4681311576
 H        -7.0042693762        7.7321385728      -11.9302429638
 Na      -12.4183438283        1.3307147287        2.8042332083
