117

 C       -13.5503041208        0.6497440431      -10.1711614981
 C       -12.6883770728       -0.5575931551       -9.6431707585
 O       -13.1758071704       -1.5701743163       -9.1831467106
 C       -11.1377264284       -0.4609971419       -9.7655935057
 C       -10.4975535014       -0.2368171621       -8.3549518439
 O        -9.3472880574       -0.4983864530       -8.2297036063
 C       -11.3376542546        0.2053045763       -7.1608909864
 C       -10.5235648373        0.3353355346       -5.8654188769
 C       -11.2940067987        0.7707218478       -4.7026261650
 O       -12.3525535263        1.3307117459       -4.8604451879
 C       -10.6284661553        0.5990084714       -3.1862576332
 C       -10.4543423434        2.0137293051       -2.5313058718
 O        -9.3248988721        2.4860702617       -2.4663566943
 C       -11.6333519851        2.9450613489       -2.4455926244
 C       -11.1799444729        4.3909720965       -2.3736100854
 C       -10.7964584995        4.7549426756       -0.9375082324
 O       -11.1378456245        4.0646833390       -0.0098446380
 C       -10.1046047329        6.2276183829       -0.7172705404
 C       -10.7459414714        6.8842542991        0.4329906458
 O       -10.5229137076        6.4722017047        1.5765595014
 C       -11.7019662427        8.0825634273        0.3082713240
 C       -12.5255604114        8.2344749675        1.6168089197
 C       -11.6255942640        8.2227317558        2.8513324312
 O       -10.6894607291        8.9753751384        2.8998616747
 C       -11.8268187003        7.3640241772        4.2740889660
 C       -10.4097741352        6.6629467435        4.5841601055
 O       -10.3627905663        5.4665612423        4.3599908659
 C        -9.2838144837        7.5402199149        4.9258431675
 C        -7.9398224166        6.8707871441        5.0422604591
 C        -7.8221988970        6.0655515172        6.3976630617
 O        -8.5785378871        6.1820024048        7.2882617157
 C        -6.4886407961        5.2149718629        6.6574504153
 C        -6.5187999236        3.9654459436        5.6971024504
 O        -5.9685973634        3.9854310623        4.5859094627
 C        -7.3947854881        2.8489314696        6.1341668354
 C        -7.8233938028        1.7859064206        5.1888561112
 C        -8.2106205923        2.1147505012        3.6931090651
 O        -9.3881966019        2.4058519627        3.4311814412
 C        -7.2593963332        1.8549878805        2.4227292554
 C        -6.9669670894        3.2901433644        1.8605077844
 O        -7.7387231428        4.2530136987        1.8670488183
 C        -5.6150775778        3.4783153359        1.2452323160
 C        -6.0496342066        0.9928015860        2.7748474040
 C        -8.0938846020        1.1637844232        1.2434881370
 C        -5.1689065017        5.9941252955        6.3218466064
 C        -6.4507399471        4.6990095141        8.1192474741
 C       -12.2202570668        8.4742471173        5.2394420529
 C       -12.8161907617        6.1793778924        3.8147690674
 C        -8.5522017821        6.1856131591       -0.3333645644
 C       -10.2129062897        7.1290490548       -2.0602598302
 C       -11.7192308775       -0.1904292430       -2.3537113053
 C        -9.3863547749       -0.1778978876       -3.2102552663
 C       -10.4847307288       -1.7677715273      -10.2989891049
 C       -10.6933297746        0.7467579028      -10.7726091186
 H       -14.6317876976        0.5275930918       -9.9832836849
 H       -13.2654674344        0.7015203499      -11.3121049612
 H       -13.1741894398        1.6146437709       -9.7448559110
 H       -12.1547640212       -0.4736044307       -6.9366069784
 H       -11.7828341542        1.1814984706       -7.3697857612
 H        -9.7030014506        1.0471187085       -6.0292896436
 H        -9.9373246801       -0.5692292203       -5.8446425570
 H       -12.3364559268        2.6879451435       -1.6419574450
 H       -12.2867177392        2.7222925976       -3.3037133640
 H       -11.9701613083        5.0855953010       -2.7926643839
 H       -10.3435119846        4.7035597953       -2.9953594141
 H       -12.3391119937        7.9783573859       -0.5205159149
 H       -11.0297199286        8.9833514001        0.1311563827
 H       -13.3807119511        7.5327070339        1.7438249729
 H       -13.0076444116        9.2081696553        1.5621047681
 H        -9.4953913644        8.1624210021        5.8265542176
 H        -9.1024617817        8.2781590375        4.1212622145
 H        -7.0673919745        7.5458097536        5.0449665592
 H        -7.7231551717        6.1361436150        4.2152751857
 H        -8.3297443022        3.4001968196        6.4538156593
 H        -7.0361798031        2.3526042399        7.0527785433
 H        -8.7417605087        1.3453537234        5.5592266542
 H        -7.0904042661        1.0096998421        5.2013326530
 H        -5.5113352167        2.6655438537        0.5538055379
 H        -4.9482744494        3.3460579163        2.1598588544
 H        -5.5741025222        4.4344250401        0.7780264307
 H        -6.3384773544       -0.1037926373        2.9257683279
 H        -5.5092420169        1.2404355673        3.6721655836
 H        -5.3406847750        1.0307985524        2.0149750785
 H        -7.8878445667        1.6849707667        0.3013396478
 H        -9.1119717188        1.3235764296        1.4189785206
 H        -7.6745117391        0.1729121288        1.1058855048
 H        -4.8618913625        5.8473551335        5.3321381307
 H        -4.4191014914        5.5219859734        6.9339600790
 H        -5.3193091272        7.0991280521        6.5529908128
 H        -5.7662504383        3.8718399318        8.1097657048
 H        -7.3064176768        4.3330778571        8.5613088512
 H        -5.9681677246        5.3374630221        8.8332449618
 H       -13.2313775085        8.7754155835        4.9766032065
 H       -11.5290698894        9.2325599774        5.3262210010
 H       -12.3531255695        8.0364326359        6.2344830636
 H       -12.4138304772        5.6994433860        2.9622109043
 H       -13.8234378823        6.6387264108        3.5882931758
 H       -13.1680279978        5.3958276258        4.5351292007
 H        -8.0666604373        7.1793231224       -0.2735425047
 H        -8.0694045488        5.5498675531       -1.0813333987
 H        -8.4211425086        5.7376691290        0.5937974113
 H        -9.6989357797        6.6929296434       -2.9168741700
 H        -9.8333859077        8.1019315617       -1.6972372633
 H       -11.2985468692        7.2663572847       -2.2617489770
 H       -12.0393888079       -1.0308464443       -2.9601828842
 H       -12.5942849377        0.4707166735       -2.3198754231
 H       -11.5211016119       -0.4510020807       -1.2596078348
 H        -9.6582585054       -1.2406169379       -3.0144856049
 H        -8.6265813005        0.0096342625       -2.4309560476
 H        -8.9199351569        0.0345138486       -4.1611294109
 H       -10.5174420638       -2.4785794614       -9.3985614858
 H        -9.5042758708       -1.5054953637      -10.6178101019
 H       -11.0387497126       -2.1627116546      -11.1345534161
 H       -10.6959739724        1.7772691490      -10.4250451661
 H       -11.2893199140        0.6994959940      -11.6483445163
 H        -9.6563548966        0.7183940440      -11.0799541266
 Na      -10.3230320383        4.1900152861        2.4720935053
