117

 C        -3.8055839134        9.3073859580      -12.3131561994
 C        -4.2380538229        9.0655177133      -10.8119634100
 O        -3.4088494643        9.2141273239       -9.9298676670
 C        -5.5526935225        8.2867453235      -10.5373689721
 C        -5.5013060142        7.7411223067       -8.9854637308
 O        -5.0491738857        6.6597416136       -8.6393435939
 C        -6.0568087396        8.6558420878       -7.8378543849
 C        -5.6553918704        8.4991223503       -6.3330752998
 C        -6.4318973683        7.7425953492       -5.2431968112
 O        -6.3877028488        8.3227919918       -4.1381082030
 C        -6.8684960723        6.2033124784       -5.5008432124
 C        -7.3132113135        5.2928412588       -4.2792802583
 O        -6.6064002017        4.3877516354       -3.8546964028
 C        -8.7315258669        5.3140908067       -3.6462252317
 C        -9.2637966444        3.9778883460       -3.2449096752
 C        -9.4207439265        3.9484055634       -1.6022915038
 O        -8.8679416134        4.7634698784       -0.8752859887
 C       -10.6264244780        2.9915107443       -0.9333501956
 C       -10.5608483751        2.5040310477        0.5038282603
 O       -11.5202816674        1.7518757334        0.8021738217
 C        -9.2766350581        2.8774802706        1.2761083910
 C        -9.5824237996        2.3563390993        2.7948030926
 C       -10.0424385483        3.3160448691        3.8328880885
 O       -11.2530451055        3.4956571267        3.9535922220
 C        -9.1273854408        3.7270640008        5.1438716256
 C        -9.0124013166        2.2985033456        5.8108450405
 O        -8.2096600092        1.5318160785        5.4094332326
 C        -9.7840797521        1.9895042279        6.9941579754
 C        -9.9708485109        0.4276679418        7.1983302564
 C       -10.9011910431       -0.0058191707        6.0264880827
 O       -11.0989065904        0.7755715672        5.0960192254
 C       -11.6695842992       -1.4529190878        5.9380014114
 C       -12.9338809702       -1.1610772736        5.1012948278
 O       -12.9849741709       -0.6871888361        3.9628443919
 C       -14.1696563493       -1.1330954888        6.0394616354
 C       -15.4130014336       -0.5446372891        5.1924345011
 C       -15.2367759539        0.9390569006        4.9942052166
 O       -14.5133677986        1.6248444681        5.7001116786
 C       -16.2430036449        1.8407839110        4.2011532691
 C       -15.3661081509        3.2051681509        3.6499444908
 O       -14.2228650665        3.0008203167        3.3244577505
 C       -16.0363388953        4.5634389239        3.8798920624
 C       -16.7574178318        1.2583467762        2.8804147717
 C       -17.3380145180        2.2460130468        5.1428056967
 C       -10.6139169033       -2.1094064773        5.0407764707
 C       -11.9466959794       -2.2530384986        7.2310017133
 C        -7.6867008851        4.2188918941        4.8664422585
 C        -9.9749687971        4.9089479997        5.8729770591
 C       -11.7748956405        4.1019096569       -0.9099540252
 C       -10.8783359166        1.7902469399       -1.8792317695
 C        -8.1297548825        6.2906853320       -6.4499562790
 C        -5.6498415671        5.4505546304       -6.0744176655
 C        -6.7103832074        9.2375765462      -10.8383766426
 C        -5.8747492178        6.9428875086      -11.3860166762
 H        -4.4687018558        9.5114268152      -13.2348192185
 H        -3.2611993526        8.4431140998      -12.4758398895
 H        -3.1449133469       10.0835652217      -12.2751811149
 H        -7.1458746591        8.7396707004       -7.9013138149
 H        -5.6083151151        9.6575148685       -8.1098397076
 H        -5.7591537092        9.6424922706       -6.0624655689
 H        -4.6349715245        8.0846033034       -6.1458923141
 H        -9.5504478988        5.8308468693       -4.1475223098
 H        -8.5406084683        5.8436121449       -2.6958892462
 H        -8.5292478826        3.2286235486       -3.4937356326
 H       -10.2540870802        3.6034868133       -3.4523727489
 H        -8.9090272326        3.9228058787        1.1001408148
 H        -8.4939750343        2.2034301272        0.9498978600
 H        -8.6502944807        1.8817514131        3.1107646478
 H       -10.3480166639        1.6533420712        2.6497344795
 H       -10.7687502380        2.4575891744        7.0786755488
 H        -9.3383784635        2.4278376932        7.9495612219
 H       -10.2998967994        0.1575841582        8.2433894153
 H        -8.9963313105        0.0000986675        7.0915572359
 H       -13.8584921682       -0.3435640510        6.7938332513
 H       -14.2189023525       -2.1004591491        6.4403833822
 H       -16.3804141575       -0.6908041025        5.7301745015
 H       -15.4116273353       -1.0237620425        4.1855361403
 H       -15.5285115388        5.5513306235        3.6330996065
 H       -16.4620999967        4.7618258169        4.9101422650
 H       -17.0586272101        4.5633581506        3.4113988240
 H       -15.9345640186        0.8990940866        2.1839283913
 H       -17.3292805349        1.9990716380        2.2399115803
 H       -17.2521973778        0.3895271013        2.9875308152
 H       -17.7364792274        1.3305017748        5.6216788469
 H       -18.0658708447        2.8997706180        4.7718107629
 H       -16.9279169703        2.7736692914        5.9210662193
 H       -11.0675339554       -2.7297461463        4.2003884720
 H        -9.8661301841       -2.7520408272        5.4617865074
 H       -10.0505752305       -1.3399153300        4.5408401894
 H       -11.2835932090       -1.9314154912        8.0680583822
 H       -11.9197597695       -3.2708535958        6.9281226392
 H       -12.9184864867       -1.9482288953        7.6258854612
 H        -7.6841419453        4.9862548646        4.0611751263
 H        -7.1783183096        3.2762195525        4.6533742346
 H        -7.2262588880        4.6153170888        5.7678227777
 H       -11.0499392766        4.9045318409        5.5908025487
 H        -9.4799470273        5.8511684079        5.5795908274
 H        -9.8858429569        4.8443284711        6.9382998922
 H       -11.8614895821        4.3811274967       -1.8975499160
 H       -11.4089688230        4.9904276065       -0.4845885118
 H       -12.7489789526        3.6830140670       -0.4873313909
 H       -11.5443051854        2.1677873236       -2.5949332576
 H       -11.4182405605        1.1054139702       -1.3189148786
 H       -10.0133260674        1.5389621031       -2.4584513058
 H        -8.6098919292        5.2236500906       -6.5832639517
 H        -7.8348689275        6.7507812332       -7.4755784954
 H        -8.9164396445        6.9236882438       -6.1658051555
 H        -5.0282734044        5.2900929914       -5.2036945667
 H        -5.1133416729        6.0206742764       -6.7885152058
 H        -6.1053603335        4.5978439472       -6.4426665870
 H        -6.7976151995        9.4339888553      -11.8665150180
 H        -6.6155869119       10.2287535621      -10.4932735362
 H        -7.6762865879        8.8666662580      -10.6361657711
 H        -5.4350651002        7.0930477782      -12.3908269760
 H        -6.8946150699        6.5490885492      -11.6497621561
 H        -5.5044430773        6.0197841356      -10.8819410090
 Na      -12.3928629235        1.4709229502        3.1694596639
