117

 C        -3.3438312590        9.0372052621      -12.0745611915
 C        -3.8084318073        8.6519753720      -10.6585181122
 O        -3.0227403612        8.7380578315       -9.7221367392
 C        -5.3862786169        8.2250851452      -10.4358388158
 C        -5.3509368218        7.6481708572       -9.0236408891
 O        -4.7102586723        6.6439891822       -8.7910548188
 C        -5.7672303289        8.4629093169       -7.7122772802
 C        -5.3867871639        7.8524156255       -6.3318451771
 C        -6.6646566258        7.2083205118       -5.6321842228
 O        -7.2956337050        7.9254032988       -4.7730985724
 C        -7.1425326767        5.7664831906       -5.8628370310
 C        -7.3382771459        5.2928836881       -4.3468546363
 O        -6.3110332522        4.9365853400       -3.7469824055
 C        -8.7145688543        5.2430036504       -3.5931431333
 C        -9.2033265811        3.8708393318       -2.9982617805
 C        -9.7348244996        4.1114591379       -1.5212842797
 O        -9.0534838079        4.8897571959       -0.8063565157
 C       -10.9607333752        3.1827838222       -1.0214729019
 C       -10.6742170170        2.5940540544        0.3750052181
 O       -11.4814413855        1.7662495162        0.8279387888
 C        -9.4628741581        3.0824235492        1.2287855645
 C        -9.2417835419        2.1160823340        2.4764358080
 C        -9.8389827491        2.8030835306        3.6828620250
 O       -10.9618965611        3.3256344053        3.6791034618
 C        -8.9238732642        3.3236686984        4.9474786296
 C        -8.6582910364        2.0176647749        5.8493677128
 O        -8.1074762640        1.0153274058        5.4219499216
 C        -8.9542034612        1.8277562474        7.3682650603
 C       -10.0308542365        0.7389562955        7.5841429053
 C       -11.0023247452        0.5119859350        6.3843744995
 O       -11.2023481470        1.3657980817        5.5276739658
 C       -11.6705420221       -0.9130575638        6.2203047621
 C       -13.0940992177       -0.6972675082        5.6024515654
 O       -13.1996792024       -0.3744009049        4.4344951567
 C       -14.3985922480       -0.8074270978        6.4356465519
 C       -15.5543765373        0.0765592940        5.7615020602
 C       -15.2124873233        1.4484419584        5.2493253343
 O       -14.2501149451        2.1487743279        5.4895577812
 C       -16.2513115821        1.9958963633        4.1244536721
 C       -15.6267040252        3.3220185500        3.4638209296
 O       -14.5177099300        3.3218107555        3.0250186266
 C       -16.4325439033        4.6344759901        3.3591070195
 C       -16.5254929241        0.8912536494        2.9796874175
 C       -17.5854305020        2.4695467823        4.8396026521
 C       -10.8638609578       -1.7688840546        5.0445702315
 C       -11.6719530132       -1.7290614363        7.4635234433
 C        -7.5113763326        4.1783318138        4.5178739988
 C        -9.8046700308        4.2722201632        5.6941741077
 C       -12.2899513686        4.1579192839       -0.9617945651
 C       -11.2119272415        1.9410106568       -1.9516725432
 C        -8.3668753675        5.5212748258       -6.8981603231
 C        -5.9598133207        4.8199169889       -6.4529316027
 C        -6.4826856217        9.2504792221      -10.5944914983
 C        -5.6389562213        7.1246687947      -11.4980534517
 H        -3.6244968035       10.0700101643      -12.3290725444
 H        -3.7593249141        8.3997816956      -12.8248496861
 H        -2.3185680632        9.1001162519      -12.0109060985
 H        -6.7733517368        8.8466697524       -7.8173429870
 H        -5.1979058239        9.4326374606       -7.8441882484
 H        -5.0902833158        8.7429324226       -5.7447328925
 H        -4.6976044127        7.0642149820       -6.5582810834
 H        -9.4994136456        5.7917475192       -4.1802310711
 H        -8.4363061962        5.8350798018       -2.6980380518
 H        -8.3693220531        3.2909938035       -2.7935453711
 H        -9.9181620642        3.2756088501       -3.6086614910
 H        -9.5284546069        4.1280098422        1.6042842929
 H        -8.6520876509        3.1521621163        0.5971757739
 H        -8.1676397379        2.0386159132        2.6930478728
 H        -9.6743767193        1.1750814563        2.1965951265
 H        -9.1952138215        2.6711682248        8.0972777902
 H        -7.9789964428        1.5791843717        7.8405101028
 H       -10.6614627909        0.7646115638        8.5430526987
 H        -9.3960273253       -0.1890751303        7.7519006258
 H       -14.1920637080       -0.5750865351        7.5246469664
 H       -14.7252317967       -1.8472208042        6.3479496511
 H       -16.2524997538        0.2203811726        6.5384363805
 H       -16.0887951351       -0.5719994471        5.0049514316
 H       -15.8976334916        5.5138998322        2.8945776072
 H       -16.7660192906        5.0982143008        4.3083830034
 H       -17.3913595306        4.4822938782        2.8008868673
 H       -15.6048882386        0.5048484426        2.5838314058
 H       -17.0410374665        1.4204111081        2.1714151545
 H       -17.1922623006        0.0875147308        3.1070030864
 H       -18.2525866206        1.6319073236        5.0492934379
 H       -18.0860172062        3.0503641853        4.0979786522
 H       -17.4801260574        3.0853073080        5.6220158282
 H       -11.1927582756       -1.5510922392        4.0143167672
 H       -10.9801470632       -2.7896076792        5.2122512076
 H        -9.8068660468       -1.5128197334        4.9506259515
 H       -10.9043153975       -1.6271547502        8.2263823734
 H       -11.5496049983       -2.7254128716        7.0389360167
 H       -12.6848907734       -1.4326173453        7.9597590346
 H        -7.7597673377        4.9277316329        3.7243445631
 H        -6.8031860610        3.5421025641        4.0625358716
 H        -7.1833258270        4.7056889417        5.4151544723
 H       -10.5986048240        3.7614563432        6.1223639093
 H       -10.3075270003        4.8526613215        4.9485305845
 H        -9.3308268209        4.9290226283        6.4031282723
 H       -12.3190968296        4.4859117675       -2.0120772770
 H       -12.0516066759        4.9565198070       -0.3806981018
 H       -13.2850744038        3.6740459196       -0.6430348741
 H       -11.4007283441        2.1776009666       -3.0207041943
 H       -12.0531601026        1.4000663567       -1.4898542654
 H       -10.3400219057        1.3962063011       -1.7482012771
 H        -8.1666320084        4.8345286959       -7.7980101151
 H        -8.7124526625        6.5061133680       -7.4142690664
 H        -9.3450772098        5.3041374226       -6.4075708753
 H        -5.0804637920        4.9516953786       -5.7295255679
 H        -5.7545293890        5.2685354042       -7.4317560510
 H        -6.2607445102        3.7826280375       -6.2481370843
 H        -6.4411840292       10.0230666983      -11.4134513897
 H        -6.6945355894        9.9669028481       -9.7159256661
 H        -7.3706140613        8.5926944077      -10.6919056869
 H        -6.0658561457        7.3957669777      -12.4562541121
 H        -6.3111196267        6.3075121239      -11.1863630021
 H        -4.6699866884        6.6357076251      -11.7367611632
 Na      -12.6297661481        1.6096105586        3.2427747746
