117

 C       -13.5438096181        0.5277035980      -10.1418670173
 C       -12.6389641108       -0.6122890076       -9.6900328630
 O       -13.2148110574       -1.5558157925       -9.1465266740
 C       -11.0862598241       -0.4633050123       -9.8297095687
 C       -10.4338306313       -0.1374756553       -8.3656221338
 O        -9.2733302319       -0.3390684529       -8.1138114406
 C       -11.3466436634        0.1239063232       -7.0900228017
 C       -10.4186781629        0.2727052671       -5.8366330177
 C       -11.2493582381        0.7503214433       -4.6082085996
 O       -12.4117345245        1.1960399127       -4.6973465550
 C       -10.6968978753        0.5121302866       -3.2201233377
 C       -10.4977701283        2.0450120686       -2.7552453865
 O        -9.3750713445        2.3972119237       -2.4160950369
 C       -11.7237459363        2.9140888655       -2.5351232413
 C       -11.3110681204        4.3622387759       -2.3711293474
 C       -10.8730123244        4.8177993789       -0.9804714562
 O       -11.1092801080        4.1476819348       -0.0022093970
 C       -10.2317639732        6.1860102214       -0.7575946460
 C       -10.7862282512        6.8333974236        0.4885655809
 O       -10.5427652012        6.4170278074        1.6461579974
 C       -11.7742789864        7.9731901629        0.3228015845
 C       -12.5477748259        8.0961393941        1.5923793835
 C       -11.5870534514        8.2292339739        2.7913931529
 O       -10.7737377112        9.1502104502        2.8083942552
 C       -11.8449269853        7.3920355403        4.0817940742
 C       -10.4189839119        6.7027425061        4.4838491441
 O       -10.3207605367        5.4950649695        4.5047965005
 C        -9.2948280767        7.6333956768        4.8476567601
 C        -7.9002723452        6.9867157796        4.9944585978
 C        -7.6552354155        6.2616202174        6.3563804724
 O        -8.5191942122        6.3586854248        7.2170511512
 C        -6.3608769297        5.2545152376        6.5883450056
 C        -6.5281555294        4.0810322070        5.6110888449
 O        -5.8593874231        4.0413405229        4.6230119521
 C        -7.4596455973        2.9024032659        6.1445343654
 C        -7.7766450035        1.6952227585        5.0937742313
 C        -8.2706789490        2.0607965689        3.7098522855
 O        -9.3887972294        2.4963748805        3.5921454357
 C        -7.3159790358        1.8677485808        2.4698075580
 C        -6.9764023408        3.2309782178        1.8137299713
 O        -7.9084768223        4.0295892171        1.7757574173
 C        -5.5393346580        3.5029526792        1.2213332867
 C        -6.0504384346        1.0535765105        2.7671631602
 C        -8.2892642028        1.1758388200        1.3445094187
 C        -5.0650658157        6.0441586206        6.1981076921
 C        -6.2608059958        4.8344974889        8.0605597453
 C       -12.2351650994        8.2692729383        5.2944266793
 C       -12.8361555673        6.2266157953        4.0191213352
 C        -8.6930861326        6.1743648475       -0.4855958278
 C       -10.2730899925        7.0815096693       -2.0595180869
 C       -11.6897384957       -0.2817607612       -2.2960145072
 C        -9.3306944448       -0.2185464922       -3.0364527131
 C       -10.4508155519       -1.7888563071      -10.2933813095
 C       -10.7321662056        0.7373005696      -10.7463409839
 H       -14.5184173851        0.3672939808       -9.5652339023
 H       -13.7040840320        0.5652843840      -11.2273791197
 H       -13.1262005878        1.4651799094       -9.8478097034
 H       -11.9938914521       -0.6903186271       -6.8977859441
 H       -11.9819671767        1.0074854751       -7.1471064087
 H        -9.5661190335        0.7873039987       -6.1132902442
 H        -9.9106160986       -0.7126648958       -5.7424703456
 H       -12.1527267441        2.5124053820       -1.5888191274
 H       -12.5088921774        2.7177491315       -3.2093703344
 H       -12.0036566347        5.1253233575       -2.8386694556
 H       -10.4172820673        4.5922491845       -2.9327470214
 H       -12.3733736243        7.8745401765       -0.5603214361
 H       -11.1050043315        8.8734345972        0.2412924279
 H       -13.1786090108        7.2473037349        1.7962161465
 H       -13.1783947895        8.9590961979        1.4995402036
 H        -9.6101766193        8.0672883749        5.7929478576
 H        -9.1036255904        8.4668855868        4.2070820050
 H        -7.0426958208        7.6240894930        4.8960146632
 H        -7.7576735199        6.2192152681        4.2288092092
 H        -8.4001741576        3.2742427612        6.6113674163
 H        -6.8782110323        2.4094301041        6.9738385506
 H        -8.6277713375        1.1757795353        5.4516711343
 H        -7.0153469303        1.0060579171        5.1433547052
 H        -5.4233129344        2.6303914761        0.5751859894
 H        -4.8307460006        3.5950243520        1.9958450368
 H        -5.6454513502        4.3717611413        0.5989784567
 H        -6.1191751200        0.0468180504        3.0711633768
 H        -5.4732726544        1.5364522154        3.5038826026
 H        -5.3598003598        1.1112897981        1.8762029916
 H        -8.4096023438        1.7655209903        0.4456264963
 H        -9.3406423383        1.1665214982        1.7847929582
 H        -7.8267104989        0.3179390455        1.0793049231
 H        -5.0754882112        6.1627910021        5.1079391830
 H        -4.2101189199        5.3452949292        6.3723529878
 H        -5.0169101518        7.0033008738        6.7149355447
 H        -5.5486576513        4.0705644403        8.2684112677
 H        -7.1712648355        4.4156137693        8.4184988715
 H        -5.9314407053        5.6435160379        8.6426314832
 H       -13.2391034459        8.6822551654        5.2584312868
 H       -11.4435384414        8.9903031131        5.4751249068
 H       -12.2081089764        7.6381719599        6.1839914619
 H       -12.6760240073        5.5172547204        3.1840045709
 H       -13.8784293825        6.4814425714        4.1462141112
 H       -12.6944952006        5.6230701606        4.9422225831
 H        -8.3614881743        7.2125504123       -0.2417846383
 H        -8.1498330072        5.8703693129       -1.3561983849
 H        -8.4236999659        5.5401041500        0.3184355566
 H        -9.5083701015        6.7952698676       -2.7915635180
 H       -10.0803904520        8.0546907809       -1.7001991950
 H       -11.3178788448        7.0434462882       -2.4280948596
 H       -11.8093687293       -1.2680872829       -2.8467129842
 H       -12.6931370337        0.1414808603       -2.1461427608
 H       -11.2856746535       -0.3864014977       -1.2849180158
 H        -9.4637220042       -1.2581095265       -2.8055534172
 H        -8.8073386662        0.0968906156       -2.1295184975
 H        -8.6926685193       -0.0030941647       -3.9303889006
 H       -10.3928611512       -2.4265865801       -9.4100219960
 H        -9.4498902677       -1.5005118779      -10.7079001771
 H       -11.0208723642       -2.1989092619      -11.1207959715
 H       -10.9939279428        1.6826120561      -10.3597215779
 H       -11.2471636156        0.6248628915      -11.7000340389
 H        -9.6776544479        0.8984812678      -10.9655648740
 Na      -10.1789362772        4.2115823003        2.4143642493
