117

 C        -3.3008523550        9.1698596049      -11.8913185549
 C        -3.4992483404        8.5276883174      -10.4739427322
 O        -2.7543936790        8.9363331766       -9.5996879131
 C        -4.9666374689        8.0313700040      -10.2347325940
 C        -5.0230796810        7.3304336114       -8.8047873928
 O        -4.9032960162        6.1464972263       -8.7034998505
 C        -5.3987986979        8.0912026405       -7.5856660444
 C        -5.6597283188        7.1870186858       -6.3632102359
 C        -7.0829223427        6.7009976825       -6.2143456633
 O        -7.9778025139        7.4752714667       -6.5782623542
 C        -7.3675118558        5.1540207767       -5.8488731932
 C        -7.2271818171        5.0562393721       -4.2927469519
 O        -6.2390130664        4.5073077660       -3.7975592124
 C        -8.3278081803        5.3663584345       -3.3166051376
 C        -9.1591818781        4.0782886693       -2.8335819353
 C       -10.0455308136        4.2946938108       -1.5429528586
 O        -9.8769549159        5.3016046673       -0.8615267171
 C       -11.0923158036        3.2745868665       -0.9876601056
 C       -10.6714187580        2.7894544413        0.4768622859
 O       -11.6532380821        2.5271704421        1.2024436711
 C        -9.2356408454        2.5153528488        0.8480529716
 C        -9.1333714542        2.0097724300        2.3480610658
 C        -9.5607975000        2.9692224196        3.5998741260
 O       -10.6989832716        3.4652900502        3.5511069477
 C        -8.6418585294        3.3237349466        4.9141859028
 C        -8.5152475586        1.8496441390        5.6221368248
 O        -8.2615526456        0.8166545525        4.9473514289
 C        -8.6699444057        1.6588711434        7.1310987043
 C        -9.8263785818        0.6857944119        7.4390637413
 C       -11.0777512466        0.7942500957        6.6415448946
 O       -11.4858164420        1.7844475739        6.1038600086
 C       -11.7428257164       -0.7074277356        6.3017019074
 C       -13.2971475912       -0.3955348829        5.8898892742
 O       -13.5209805481       -0.3308620996        4.7156237539
 C       -14.3756382318        0.1533578267        6.8071237476
 C       -15.5299799950        0.6745819989        6.0387108093
 C       -15.2007921889        1.9289692621        5.2005198479
 O       -14.2231893548        2.6316598655        5.3669874941
 C       -16.2766470808        2.1372222713        3.9950580941
 C       -15.6749901337        3.2570377037        3.0829909067
 O       -14.5618864510        3.1745829806        2.6352526394
 C       -16.5757052379        4.5303467290        2.8079727850
 C       -16.2149518940        0.7965225944        3.0382378586
 C       -17.7732655173        2.4965717061        4.5197841979
 C       -11.0740961801       -1.4309171238        5.1462698254
 C       -11.7104167281       -1.4788396068        7.6891823576
 C        -7.3212967370        3.9265056355        4.2868292928
 C        -9.4539745756        4.4135236818        5.6924177137
 C       -12.5112689599        3.8584244557       -0.7794357477
 C       -11.2274487915        2.1327531414       -1.9953514090
 C        -8.6884303766        4.6009605442       -6.2793700707
 C        -6.1985687705        4.2248401927       -6.3803733181
 C        -5.7150544344        9.4234256621      -10.3391642030
 C        -5.5023688651        7.1187388808      -11.3022815030
 H        -3.3822176106       10.1490639922      -11.7859590768
 H        -4.1923706400        8.9562772132      -12.5256621572
 H        -2.3187361757        8.9226010121      -12.3766900006
 H        -6.0955909918        8.8884819102       -7.7838495670
 H        -4.4564657814        8.6783552405       -7.3182448000
 H        -5.3494902457        7.7791216503       -5.5427037085
 H        -5.0883011918        6.3026451853       -6.5685850050
 H        -8.9044579491        6.1231783154       -3.8659926877
 H        -7.7502166896        5.9036218383       -2.5382029209
 H        -8.5751438446        3.2018318207       -2.7814193659
 H        -9.8317418167        3.9520427217       -3.7620453365
 H        -8.5177840985        3.3096090961        0.5519074705
 H        -8.9033776366        1.7878904208        0.2102608486
 H        -8.1935096742        1.4175088571        2.4079488912
 H        -9.9430014977        1.2500683025        2.3441270703
 H        -8.9263789542        2.6187627942        7.8032900331
 H        -7.7399972123        1.1586688430        7.4839117718
 H       -10.0420226804        0.6792022069        8.5619830142
 H        -9.4769693787       -0.4128399370        7.3087468234
 H       -14.0382292153        1.0121809674        7.4600076523
 H       -14.6262218356       -0.6627273423        7.5052475412
 H       -16.1830890799        0.9538730735        6.7792261853
 H       -16.1323988426       -0.0919274039        5.5072211384
 H       -16.1314804155        5.1938815868        2.1026161463
 H       -16.8493943902        5.0525397066        3.6956211882
 H       -17.4845077192        4.1736485641        2.3074574728
 H       -15.3214340474        0.7092013422        2.5503836949
 H       -17.0446609184        0.7409264301        2.3616551230
 H       -16.3915075915       -0.1704026307        3.6219528609
 H       -18.1419016137        1.6467645247        5.0089528629
 H       -18.5108217328        2.6177474200        3.7464118770
 H       -17.7325377578        3.3201639343        5.2461695137
 H       -10.2432760071       -0.7919539647        4.8686038887
 H       -11.7354545617       -1.5458240269        4.3042896894
 H       -10.5256212906       -2.3918181667        5.3779295680
 H       -10.7124739830       -1.8840283359        7.7328496748
 H       -12.3844895764       -2.3699449318        7.4559940183
 H       -12.1913689881       -0.9539049267        8.6153102044
 H        -7.4340502939        4.8806465245        3.7407727112
 H        -6.9848574347        3.2213173781        3.5913455984
 H        -6.5922144426        4.0338329595        5.1023949155
 H       -10.2570675084        4.0908836655        6.2711639615
 H        -9.7477570217        5.1845308066        4.9752103328
 H        -8.7596731095        4.8716041368        6.4500461282
 H       -12.6678824775        4.2502696285       -1.8554137202
 H       -12.5927746496        4.5726503872        0.0303653536
 H       -13.2683103159        3.1742438534       -0.6293272623
 H       -11.5022056629        2.6054292879       -2.9986223498
 H       -12.0535858760        1.5167640284       -1.5476107463
 H       -10.4670680377        1.4040255713       -1.9315031156
 H        -9.0155657638        4.9498358286       -7.2460109124
 H        -9.5962694115        5.0319505901       -5.8291897804
 H        -8.6963455571        3.4282014974       -6.2960181086
 H        -5.2242177791        4.3996687080       -5.8504707361
 H        -6.3654833585        4.1964118370       -7.5255859591
 H        -6.6122970898        3.1985292333       -5.9750774310
 H        -6.0986674703        9.4345399825      -11.4022855832
 H        -5.1582867843       10.3667440191       -9.9910725145
 H        -6.6190561091        9.3486527136       -9.6697368915
 H        -4.9380922624        7.1586738631      -12.1771755416
 H        -6.5211077206        7.2740309331      -11.4899240712
 H        -5.2462165078        6.1123846686      -11.0758912647
 Na      -12.5662129298        2.0122693119        3.6987987206
