117

 C        -3.0277603861        9.1445322008      -11.7779113715
 C        -3.3682000906        8.6531813580      -10.3893878698
 O        -2.5521811778        8.7033060492       -9.5078834842
 C        -4.8725061771        8.0667510077      -10.1442760707
 C        -5.0018497740        7.2199210366       -8.8005215902
 O        -4.9946650724        5.9880282512       -8.8503311544
 C        -5.2188710839        7.8461047500       -7.4204864838
 C        -5.9319712398        7.0290463211       -6.2783245569
 C        -7.2334279173        6.2982500351       -6.3935823538
 O        -8.0317619949        6.7117074273       -7.1951881388
 C        -7.4968873100        4.9456808569       -5.8253763479
 C        -7.2643441992        4.8795673522       -4.1924190913
 O        -6.3162013865        4.3128434257       -3.6735939513
 C        -8.3745194881        5.3874910970       -3.1974746342
 C        -9.1973758206        4.2104927718       -2.5524929051
 C       -10.1005642117        4.4708631806       -1.2968244205
 O       -10.0804761988        5.5123741244       -0.6672101350
 C       -11.1381961433        3.2976809303       -0.8986671064
 C       -10.9053895170        2.8149286244        0.6011493478
 O       -11.8174852370        2.5989446185        1.3541462281
 C        -9.3769004766        2.5685323467        0.9357371674
 C        -9.1233235570        2.0378297889        2.3894758007
 C        -9.5234775045        3.1136249827        3.4491083505
 O       -10.5362789248        3.7379413145        3.3305075050
 C        -8.4702539453        3.2699833883        4.6394047915
 C        -8.5233213930        1.8913859818        5.3916822935
 O        -8.5549342867        0.8487568695        4.8361697487
 C        -8.6670700079        1.9117073280        6.8836323133
 C        -9.5519800498        0.6395800012        7.2765269289
 C       -10.9247763337        0.6675684329        6.5895878270
 O       -11.3848980453        1.8019293140        6.3189894379
 C       -11.7762483725       -0.5944450542        6.4407666804
 C       -13.2662710977       -0.1114226112        5.9575588864
 O       -13.6820930180       -0.1597058101        4.7935448841
 C       -14.2733009503        0.4105036678        6.9457750033
 C       -15.6168993632        1.1361645332        6.3504294361
 C       -15.3245836955        2.0985137691        5.1508113892
 O       -14.4281643191        2.9129449560        5.3218805889
 C       -16.2757997487        2.1605396941        3.8390373170
 C       -15.6434192799        3.3564782646        2.9348458664
 O       -14.5076654776        3.2266867307        2.5064753458
 C       -16.6068590956        4.4641750049        2.4510346715
 C       -16.1861821962        0.7805185340        3.0455869097
 C       -17.7505815360        2.4062668887        4.3325549127
 C       -11.1126477903       -1.3962232210        5.1865768510
 C       -11.7553901113       -1.5655762633        7.7375879141
 C        -6.9980655847        3.7089864192        4.2228461892
 C        -9.0517660918        4.3565522722        5.5097700565
 C       -12.5224012332        3.9937069181       -1.1124180873
 C       -11.0041158227        2.0624855395       -1.7578996543
 C        -8.8524549594        4.4798354969       -6.1251328406
 C        -6.3981151874        3.9841193157       -6.4986710384
 C        -5.9072111256        9.3259077294       -9.8384494503
 C        -5.3594288979        7.0996107091      -11.2799622518
 H        -2.7139314990       10.2374291503      -11.5467041816
 H        -3.7979548218        9.2090114659      -12.5441993733
 H        -2.2387655301        8.5797027615      -12.1749194329
 H        -5.7274740705        8.8499590017       -7.4882324088
 H        -4.2592453062        8.1142409676       -7.0261601572
 H        -6.2044863805        7.9097675597       -5.5376225512
 H        -5.2047222002        6.2989398800       -5.7998093978
 H        -9.0559723625        6.0199250483       -3.7720302813
 H        -7.8314519962        6.0203304842       -2.4985462658
 H        -8.6793416589        3.2455455097       -2.2332798776
 H        -9.7388588718        3.9760331858       -3.3845117675
 H        -8.7367483442        3.3906101370        0.6924855977
 H        -8.9126326079        1.7716845687        0.1969082720
 H        -8.0863944977        1.6898242118        2.3883527589
 H        -9.6533056498        1.0939769441        2.4356925553
 H        -9.1000120347        2.7558990927        7.2439392055
 H        -7.7557659671        1.6375842756        7.3863554436
 H        -9.6999161589        0.5679992568        8.3390994678
 H        -8.9612582054       -0.1848967285        7.0573659318
 H       -13.8079431315        1.2313323393        7.4673769527
 H       -14.4057301633       -0.3716088555        7.7062047713
 H       -16.1691522969        1.7503887566        7.2149215470
 H       -16.4398149099        0.4523482183        6.1276202487
 H       -16.1189082113        5.2381466354        1.7673363822
 H       -16.9853169007        4.9325462037        3.4402107467
 H       -17.4673167308        4.0327089938        1.8727225741
 H       -15.0964303077        0.4665693595        2.8619319075
 H       -16.6347832964        0.8129626562        2.0147133682
 H       -16.6406241121        0.0277789767        3.5509178900
 H       -18.0413639750        1.4887087785        4.9938253529
 H       -18.3297549638        2.3765456202        3.3881982089
 H       -17.8897313204        3.2512668532        4.9094695757
 H       -10.0006342529       -1.3784513994        5.1058542990
 H       -11.5432266209       -1.0147453986        4.2544127159
 H       -11.4155127804       -2.3975752913        5.2783499146
 H       -10.7297550692       -1.3825284882        8.0932706236
 H       -11.9583549085       -2.5868611295        7.5456824111
 H       -12.5122808118       -1.2153114957        8.3970251513
 H        -7.0344328523        4.5207334212        3.5092742872
 H        -6.3881130560        2.8484147932        3.7765532657
 H        -6.5025527507        3.9987467846        5.1324814166
 H       -10.0827333971        4.0023457256        5.7100442583
 H        -9.0822566136        5.3439874041        5.1164633300
 H        -8.6426736853        4.4040637483        6.4511220852
 H       -12.7778892046        4.1290480333       -2.1051016834
 H       -12.6553401292        4.8417180213       -0.4865654668
 H       -13.2612505350        3.2203534218       -0.6406509379
 H       -11.2139838529        2.4944816243       -2.6782060161
 H       -11.6151212962        1.2564163257       -1.4825014638
 H        -9.9615044232        1.6331963680       -1.7330962963
 H        -9.5146278109        5.1587432960       -6.7552825883
 H        -9.5366539666        4.5248374118       -5.2826894769
 H        -8.8573084514        3.5590134438       -6.5475336630
 H        -5.4520638315        4.1871023302       -6.0361739328
 H        -6.5593821333        4.2224852541       -7.4890807825
 H        -6.6983388036        3.0130401897       -6.4197902034
 H        -5.8967082987       10.0139350786      -10.6695847738
 H        -5.7170424608        9.7611841788       -8.8834767757
 H        -6.9333862731        8.9315541785       -9.7672940357
 H        -4.8501715353        7.1248109053      -12.2811270383
 H        -6.4744369244        7.1974968644      -11.2625531630
 H        -5.0411733552        6.0915726191      -10.9820207644
 Na      -12.4976127314        2.2030245207        3.6235903007
