117

 C        -3.0155636851        9.1094705314      -11.6502047091
 C        -3.3939331036        8.5475793786      -10.2267341348
 O        -2.5652545112        8.5052895916       -9.3359495522
 C        -4.9510780486        8.1051250668       -9.9059063301
 C        -5.0798471951        7.0847706832       -8.6684235401
 O        -4.9697941430        5.9144702607       -8.9427052531
 C        -5.1808363791        7.7498269693       -7.2327936836
 C        -5.8970688970        7.0234290653       -6.0508275284
 C        -7.2013451368        6.2307694245       -6.5670426368
 O        -7.9331653822        6.4119065972       -7.5652706099
 C        -7.5625839451        4.6939385245       -5.6994753644
 C        -7.3867153685        4.7736974493       -4.1702336605
 O        -6.3770912646        4.2656563376       -3.6431838069
 C        -8.4460544220        5.4170545232       -3.1879165392
 C        -9.1323658970        4.2278599812       -2.5010240125
 C       -10.0245399402        4.4596411702       -1.1899422743
 O       -10.1751554290        5.5732262688       -0.6540167148
 C       -11.0646500374        3.3550071121       -0.7858221163
 C       -10.9879808820        2.9253950813        0.6731458118
 O       -11.9539470789        2.5375983084        1.3588869780
 C        -9.5653002288        2.6587577786        1.0076905706
 C        -9.1169599981        2.1178424835        2.3189561782
 C        -9.3298954104        3.2292218884        3.3690508169
 O       -10.4718102645        3.7774892327        3.3419770858
 C        -8.5230617790        3.4034592019        4.5728809402
 C        -8.6379736386        1.8382882331        5.3194853683
 O        -8.5532055607        0.8589391368        4.5872283885
 C        -8.7066312990        1.7115415055        6.8508426954
 C        -9.5687862640        0.4618613988        7.3021895679
 C       -10.9656305161        0.7434176015        6.6822100571
 O       -11.2866556527        1.8130678749        6.1749756288
 C       -11.9439998015       -0.5417001209        6.4483167476
 C       -13.2814248227       -0.0652443561        5.9411033468
 O       -13.5467889156        0.0850588009        4.7905044012
 C       -14.1910310510        0.7361776065        7.0512808225
 C       -15.4181077460        1.2439868411        6.4503642657
 C       -15.2191213949        2.1535794572        5.2395642954
 O       -14.3342309033        2.9675480183        5.2818878774
 C       -16.2109979590        2.1682320037        3.8760538417
 C       -15.6492083269        3.2223023492        2.8870270579
 O       -14.4985496095        3.2707826884        2.5617797761
 C       -16.5280770696        4.3073269234        2.2864207089
 C       -16.1561610468        0.8239286087        3.0511696365
 C       -17.7074599212        2.3458218822        4.2064964070
 C       -11.1074912954       -1.3124958999        5.2326589846
 C       -11.9811882929       -1.3828868782        7.6293438793
 C        -6.9556825485        3.4361011761        4.1608903293
 C        -8.9396568982        4.7402241879        5.3081899520
 C       -12.4485891926        3.9606269040       -1.1919970106
 C       -10.8662613381        2.0976068475       -1.6816487474
 C        -9.0744474998        4.2481574871       -6.0231231090
 C        -6.5842215433        3.7955742837       -6.4374693724
 C        -5.9243196920        9.2459179059       -9.9529878639
 C        -5.2466285010        7.3013085815      -11.2522403487
 H        -2.4457592335        9.9671603520      -11.4514122876
 H        -3.8123892513        9.4050409546      -12.4656871101
 H        -2.4173214566        8.2352120174      -12.1434496228
 H        -5.5522881646        8.7767911662       -7.3583607591
 H        -4.1273163365        7.8905910275       -6.9806480166
 H        -6.3211559898        7.7575884497       -5.2815735470
 H        -5.3011602129        6.2728521093       -5.5691378714
 H        -9.1526786395        6.0296468596       -3.7736564674
 H        -7.9820722330        6.0389118641       -2.4047237950
 H        -8.4549580592        3.4947413521       -2.0190445239
 H        -9.5790035801        3.7232587458       -3.3745419881
 H        -8.8884420434        3.5206736647        0.7752689616
 H        -9.1775752418        1.9349586869        0.2176895546
 H        -8.0838050805        1.6831226832        2.1299402861
 H        -9.6880555955        1.2036587302        2.5213908768
 H        -9.3237276758        2.6182055709        7.1739462587
 H        -7.7759091094        1.5497941226        7.3268436173
 H        -9.5400235268        0.2370088999        8.3268575585
 H        -9.1442806632       -0.3539717290        6.8082622758
 H       -13.5802172919        1.5729816699        7.4431898985
 H       -14.4867099755        0.1968051583        7.9309686537
 H       -16.0872381320        1.7375694573        7.1329703999
 H       -16.0568137193        0.3594247497        6.2551711913
 H       -15.7894713871        4.9506171645        1.7618195939
 H       -16.9164698317        4.8376692141        3.1820931662
 H       -17.3283045480        4.0170280321        1.5346254162
 H       -15.1655635353        0.4396754948        2.8994371779
 H       -16.5117255065        1.0028436691        1.9842784906
 H       -16.7773332417        0.0011998434        3.5410871562
 H       -18.0249474427        1.5841280790        4.9931553252
 H       -18.1869506984        2.1130865439        3.1651748745
 H       -18.0080807524        3.3367292010        4.6146313410
 H       -10.0987857164       -1.6690603182        5.6134390050
 H       -10.8898081176       -0.6094790872        4.4537688202
 H       -11.6737622243       -2.1585534535        4.8028652489
 H       -11.0461616480       -1.4609151109        7.9899473572
 H       -12.5194675574       -2.2658006961        7.5184506272
 H       -12.5808849999       -0.7775827401        8.3259342450
 H        -6.8035529856        4.1825247553        3.3372768228
 H        -6.7200801698        2.4587277554        3.7548808846
 H        -6.2564469971        3.5629927688        4.9821711440
 H        -9.9999624035        4.8178945230        5.3750908049
 H        -8.5496007779        5.6396636093        4.7604146544
 H        -8.5784879910        4.8132523037        6.3809665407
 H       -12.6340686090        3.9283527710       -2.3577064462
 H       -12.6275664370        4.9703126874       -0.8630940543
 H       -13.2117592045        3.3524488910       -0.7081359646
 H       -11.2540708280        2.3498134688       -2.6714907230
 H       -11.4282534735        1.2837608622       -1.2401633142
 H        -9.8462518220        1.7708066913       -1.7806419013
 H        -9.5379913231        4.9545931731       -6.6457692366
 H        -9.7639804264        4.3837963299       -5.2440997176
 H        -9.2525138755        3.3349097476       -6.5549298284
 H        -5.6903568306        3.8090785659       -5.9628780569
 H        -6.6385790484        4.1499377080       -7.3976910691
 H        -7.0171622510        2.8491934243       -6.6241468811
 H        -5.6241369247        9.8737762231      -10.7196599522
 H        -5.9343604178        9.6568251033       -8.9982234242
 H        -6.8826578263        8.9345899357      -10.1873808268
 H        -4.9773960907        7.8809711680      -12.1690229441
 H        -6.3401676158        7.0058601469      -11.2489210522
 H        -4.5053462028        6.4440147621      -11.3888017636
 Na      -12.5797846542        2.4100446077        3.6317206815
