117

 C        -3.0184986556        9.0554531321      -11.2937095392
 C        -3.4492632020        8.5569175926       -9.9923050879
 O        -2.6434498979        8.2962915944       -9.1087224469
 C        -4.9400916512        8.1430682280       -9.9057904826
 C        -5.0259918674        7.0336344055       -8.6630202214
 O        -5.0221622178        5.8481950111       -8.7613402222
 C        -5.2164593403        7.5802840954       -7.2179238187
 C        -6.0669133535        6.7236995633       -6.1558721338
 C        -7.2680336598        5.9379304503       -6.6322427684
 O        -7.6568592886        6.2293296792       -7.7025070858
 C        -7.6407180569        4.7356820081       -5.7457698060
 C        -7.4256588238        4.7238527821       -4.1631764983
 O        -6.4377737954        4.2495617952       -3.6710055156
 C        -8.5331597611        5.3531565347       -3.2020952545
 C        -9.0575761240        4.2406355336       -2.2987372732
 C       -10.0756838241        4.6507801455       -1.2819905327
 O       -10.0592807388        5.6572790307       -0.6893553162
 C       -11.1615860832        3.3731681867       -0.9285114288
 C       -11.0097438916        2.8783142514        0.5621503326
 O       -12.0140395787        2.5753901432        1.2013261792
 C        -9.5031806331        2.7158323696        0.9224185657
 C        -9.1496188007        2.2268780428        2.3165008407
 C        -9.4885237502        3.1676282036        3.4297996819
 O       -10.4846156430        3.8893955973        3.3839226538
 C        -8.4703719125        3.2855947666        4.5979041957
 C        -8.6561028935        2.0225813067        5.3304381932
 O        -8.5659795804        1.0445251253        4.5445248796
 C        -8.7049640211        1.6836851101        6.7981418608
 C        -9.6480300271        0.5198076930        7.1479591864
 C       -10.9300981860        0.7597488007        6.5487343602
 O       -11.2269445310        1.8068496907        6.0332901522
 C       -11.9511723909       -0.4170289696        6.5097409928
 C       -13.1653974117        0.3323607449        5.8913889691
 O       -13.4992730384        0.3417599029        4.7189446186
 C       -14.0774132471        0.9778844819        6.9644100747
 C       -15.4518074543        1.2758514330        6.3733510805
 C       -15.2034727651        2.2534939280        5.1557155314
 O       -14.2400802330        3.0015113477        5.2047147037
 C       -16.1233799938        2.1381573939        3.8583460621
 C       -15.5886792285        3.2401018025        2.8934246054
 O       -14.3894495302        3.1972937078        2.6414600552
 C       -16.5999504799        4.2076640226        2.1777549382
 C       -15.9629788892        0.8091941124        3.1921430499
 C       -17.6135682168        2.3557063728        4.2144156312
 C       -11.2941856788       -1.2513787238        5.2959854369
 C       -12.1697910512       -1.3935002765        7.7119744060
 C        -6.9307794092        3.2051495600        4.1615520997
 C        -8.6067024429        4.7276606681        5.1831968606
 C       -12.5798357013        3.9348951748       -1.1999118211
 C       -10.8255714597        1.9410457505       -1.6694625104
 C        -9.2213402431        4.2331269141       -6.0052997132
 C        -6.7091548024        3.5545170806       -6.3065983748
 C        -5.9041655014        9.3339756599      -10.0078401361
 C        -5.2484197446        7.2435149570      -11.2452366231
 H        -2.0765554713        9.6029673811      -11.3173507143
 H        -3.7901696521        9.6407951207      -11.7644303895
 H        -3.0618109279        8.0755270396      -11.8903800849
 H        -5.5125079315        8.5930283627       -7.2418196688
 H        -4.1792331566        7.5545592520       -6.7434703920
 H        -6.4734946898        7.3485837870       -5.4198159825
 H        -5.3885918464        6.0819364343       -5.5822834667
 H        -9.3183201200        5.8992722763       -3.7359651197
 H        -8.1115702116        5.9944462551       -2.3872568622
 H        -8.3838061191        3.6946370403       -1.6800122347
 H        -9.4946042931        3.4820204306       -3.0950144276
 H        -9.0630861081        3.7822639524        0.8733700114
 H        -8.9475056922        2.2348292900        0.2007554487
 H        -8.0775021596        1.8752673199        2.3430346870
 H        -9.6579245577        1.2257805723        2.4324444731
 H        -9.1027558062        2.5573836276        7.4483033051
 H        -7.7103259465        1.2415818296        7.0860450024
 H        -9.8300117424        0.5333478811        8.2238292672
 H        -9.2021173459       -0.5196719484        6.9025571429
 H       -13.6194156287        1.8964503138        7.3823584425
 H       -14.2040843666        0.3346561750        7.8564976181
 H       -16.0797040711        1.7695898486        6.9973422739
 H       -16.0581954656        0.3861340854        6.2347947468
 H       -16.0386176749        4.7604028827        1.4499841511
 H       -17.2123527819        4.8039455988        2.8224915891
 H       -17.1074122313        3.4532289691        1.5811086942
 H       -14.9680972646        0.5222891101        2.9426527525
 H       -16.3991093401        0.9239009474        2.2058067994
 H       -16.4807785175       -0.0835398938        3.7636138965
 H       -17.9858223561        1.7835121673        5.0279745830
 H       -18.1705014519        2.2821287175        3.2787277836
 H       -17.6036841463        3.4741973867        4.6426251023
 H       -10.7502454240       -2.0747179853        5.6969710226
 H       -10.4887838642       -0.6413525517        4.8360140987
 H       -12.0480109162       -1.5911003746        4.4778001670
 H       -11.3637881373       -2.0417593259        8.0433852341
 H       -13.1457437780       -1.8042265135        7.4932053352
 H       -12.4554378121       -0.7528815446        8.5465808740
 H        -6.7474866296        3.9991517448        3.4255855772
 H        -6.6822926631        2.2538637746        3.7686504471
 H        -6.2216145606        3.2473476379        5.0175659604
 H        -9.6551367161        5.0727364534        5.1286085209
 H        -8.0357005277        5.3708354368        4.4565216798
 H        -8.2469975526        5.0042887016        6.2371351184
 H       -12.6873795106        4.0692117524       -2.3158813664
 H       -12.5845078663        5.0523605060       -0.8287288981
 H       -13.3993657925        3.4503799136       -0.7608488849
 H       -11.0853333294        1.6926063134       -2.7400242652
 H       -11.3819707166        1.2517306963       -0.9443977231
 H        -9.7695743894        1.7473969408       -1.5648864065
 H        -9.7279337127        4.5962126497       -6.8449999716
 H        -9.8979144303        4.4248322337       -5.2224067501
 H        -9.2700190294        3.1303524296       -6.3009479455
 H        -5.9058963309        3.6591072284       -5.5834788519
 H        -6.4733035861        3.5816628089       -7.3816140276
 H        -7.2893101612        2.5997827865       -6.2034534784
 H        -5.6218997877        9.9227756167      -10.8362534448
 H        -5.7576982336        9.7587014517       -9.0506945928
 H        -6.9045296054        9.0190940973      -10.1871204125
 H        -5.6692887526        7.9090672621      -12.0162783767
 H        -5.9993213341        6.4926276492      -10.9972584527
 H        -4.3496674612        6.8664565289      -11.7770607180
 Na      -12.6020546998        2.6064830460        3.7005690080
