117

 C        -2.6770566615        9.1432766795      -10.4783349311
 C        -3.3797550036        8.1812511720       -9.4252159693
 O        -2.9832806160        7.9325762507       -8.2943803728
 C        -5.0419417715        7.7066124897       -9.6863544150
 C        -5.3031649249        6.7045882543       -8.4969253251
 O        -5.0520174841        5.5507659490       -8.6562707417
 C        -5.7685357038        7.3027083850       -7.1704096790
 C        -5.8126411458        6.0979807633       -6.1977348701
 C        -7.0872780048        5.3344450664       -6.7999792364
 O        -7.6154859331        5.6307871256       -7.8234025391
 C        -7.8043019625        4.3221350840       -5.7575902368
 C        -7.5343831161        4.6603166674       -4.3386654119
 O        -6.4139357330        4.5946776931       -3.8390217026
 C        -8.6944267596        5.1990803283       -3.4910133639
 C        -9.0112113957        4.1872635549       -2.4216826780
 C       -10.2111552989        4.5026690982       -1.5022399438
 O       -10.3118351176        5.5689343097       -0.9582611838
 C       -11.2340935971        3.2821723530       -1.1843967608
 C       -10.9318401349        2.9019079234        0.3204499166
 O       -11.8649275312        2.8647897881        1.1124564321
 C        -9.5526324602        3.1459533385        1.0276920869
 C        -9.3353984402        2.3732427936        2.3340848016
 C        -9.2710422330        3.2663010340        3.6433234837
 O       -10.1271471539        4.1241760500        3.9717397209
 C        -8.0463706498        3.1536477860        4.5191624334
 C        -8.4093768331        1.8191286585        5.3473315790
 O        -8.6484448971        0.8231838184        4.6559958621
 C        -8.7676627133        2.0046971921        7.0183039504
 C        -9.7184763160        0.8822003536        7.3870535247
 C       -10.7942814853        0.9052153029        6.3616930111
 O       -10.9621078528        1.8705473739        5.6306526967
 C       -11.9121224628       -0.1544639115        6.2731593207
 C       -13.2002931306        0.6889890440        5.8930796485
 O       -13.3811992797        0.9471919798        4.7535522525
 C       -14.1913464337        1.0782285235        6.9672735509
 C       -15.3222804756        1.7637566830        6.3346115557
 C       -15.0596719934        2.6153829792        5.0495556188
 O       -14.3976077592        3.6300728008        5.2163881751
 C       -15.9979077386        2.2360437339        3.7644528057
 C       -15.5837402851        3.2299939845        2.6245271609
 O       -14.4320291967        3.5008396974        2.3327683998
 C       -16.6826447798        3.7783525638        1.6918342893
 C       -15.8684146964        0.8198108303        3.2335454549
 C       -17.5130791296        2.4355604424        4.1638433327
 C       -11.7950563834       -1.2756600888        5.3292427195
 C       -12.0431256670       -0.7862270440        7.7333589029
 C        -6.7723088788        3.0747568629        3.6011257679
 C        -8.0531062352        4.3773828996        5.4545051312
 C       -12.6198519861        3.9539720016       -1.2832973812
 C       -11.1466506424        2.0248086642       -2.1418290626
 C        -9.3230929451        4.2986323501       -6.2208374745
 C        -7.1991070888        2.8689298126       -6.0822639435
 C        -5.8693707694        9.0825661430       -9.4946571166
 C        -5.4349172040        7.1022265456      -10.9949987402
 H        -1.6887923232        8.7609079659      -10.7405198556
 H        -2.5531713657       10.1754772883      -10.0844408407
 H        -3.3608777681        9.2457368409      -11.4061666649
 H        -6.7725192527        7.7255192675       -7.2277923899
 H        -5.0321012626        8.0888884097       -6.9007190386
 H        -6.0406686949        6.2847455489       -5.0967553439
 H        -4.9123683148        5.4893999175       -6.0830577972
 H        -9.5702780462        5.2872326306       -4.1178234566
 H        -8.4745889483        6.1565347597       -2.9873038003
 H        -8.1883527834        4.0180350106       -1.7540099044
 H        -9.1214828462        3.2558867255       -3.0478184726
 H        -9.4970549722        4.2500449159        1.3133476731
 H        -8.6715420335        2.9673443917        0.3523191839
 H        -8.3876987143        1.8412179422        2.3730855357
 H        -9.9695011130        1.5027619478        2.4153168420
 H        -9.4120256340        2.9118817726        7.0973679910
 H        -7.8942089013        1.9893296356        7.5520084560
 H       -10.1338729548        0.9877117459        8.3212840832
 H        -9.2036976182       -0.0344125293        7.2943747539
 H       -13.7775249142        1.7227181739        7.7555904039
 H       -14.5985116520        0.2687680036        7.5052029218
 H       -15.6969942767        2.3815174389        7.1263272527
 H       -16.2734824613        1.1236422214        6.1760068118
 H       -16.1260106675        4.1667157775        0.7948295464
 H       -17.2384826540        4.5626335164        2.2585541957
 H       -17.3170910044        2.8473664977        1.4523426146
 H       -15.1085071904        0.7438464081        2.5277808241
 H       -16.7543069269        0.4859364154        2.7069675073
 H       -15.5395360684        0.1484242001        4.1275801016
 H       -17.7016299663        1.6908103806        4.8764613011
 H       -18.1510875877        2.4680311878        3.2812908692
 H       -17.5005292317        3.5003546119        4.7015889142
 H       -12.7351122109       -1.7882179891        5.1530235373
 H       -11.1572115585       -2.0190561600        5.6884579066
 H       -11.4347524658       -0.7916006791        4.3965833769
 H       -11.1154304381       -1.2802225067        7.7972309900
 H       -12.8790818647       -1.4975012603        7.8222559488
 H       -12.0557599871       -0.1030408141        8.6010185429
 H        -6.6329515944        3.9892153253        2.9809114555
 H        -6.6736796606        2.1885034849        3.0495665930
 H        -5.8692725892        3.0330663908        4.2162917298
 H        -8.8986894620        4.5273750321        6.0288365092
 H        -7.9920051378        5.3139529077        4.9549466805
 H        -7.1636422598        4.3212685138        6.0961583272
 H       -12.8940409396        4.3443446696       -2.3199018447
 H       -12.6856503548        4.9276698076       -0.7139613087
 H       -13.3372663315        3.3130961164       -0.9633347595
 H       -11.0113141396        2.3922284999       -3.1752576059
 H       -12.0504192488        1.4340378318       -2.2022697768
 H       -10.2331718448        1.5919168027       -2.0220160283
 H        -9.5294276292        3.6116366248       -6.9647891050
 H        -9.5771541122        5.2658857268       -6.5363785449
 H       -10.2241836101        4.0204779377       -5.5448929763
 H        -6.2103474802        2.9380499657       -6.3290212888
 H        -7.8332023342        2.4400595789       -6.8079043497
 H        -7.4431487622        2.2705474536       -5.2241282151
 H        -5.8042165609        9.5379466493      -10.5016584760
 H        -5.3210991905        9.6972155638       -8.7545875420
 H        -6.9172839497        8.8542296087       -9.3113700869
 H        -6.5051264083        7.1780395445      -11.2280987986
 H        -5.0688559105        6.0299371946      -11.0055778944
 H        -4.6763025035        7.5316520795      -11.7427176947
 Na      -12.3153575569        2.9173415755        3.6349993953
