117

 C        -2.5711219478        8.9639161523       -9.8964581541
 C        -3.4363374757        8.1437268988       -9.0644856452
 O        -2.9564094872        7.8290267849       -8.0001081559
 C        -4.8614690159        7.7429518806       -9.4844746175
 C        -5.1765868415        6.4953164494       -8.6260187700
 O        -4.9451606117        5.3715208628       -8.9429809829
 C        -5.6144462923        6.7493515417       -7.1197272173
 C        -6.1530983661        5.6480198808       -6.2984783310
 C        -7.4356788237        4.8919885345       -6.8363947591
 O        -7.9426630334        5.0199031494       -7.8981936055
 C        -8.0879240151        3.9033702784       -5.8139628625
 C        -7.6789248394        4.5925308157       -4.3030337902
 O        -6.5622801595        4.3378682301       -3.8496404252
 C        -8.7907264540        5.0123363482       -3.4204830035
 C        -9.1838165630        3.9854517871       -2.3132910831
 C       -10.3372448163        4.5506486079       -1.5895531203
 O       -10.4841771099        5.7471668678       -1.3771810124
 C       -11.4375492029        3.4825058652       -0.9769066786
 C       -11.2026780519        3.0980850486        0.4934893059
 O       -12.0744795069        2.6116949004        1.2232936508
 C        -9.8429384866        3.3252683035        1.1082654517
 C        -9.4298447913        2.4368393143        2.3811550487
 C        -9.1305024987        3.3790597809        3.6609784474
 O        -9.9629515736        4.1938362463        4.0838649145
 C        -7.7099592984        3.1467858900        4.4440761080
 C        -7.8809807431        1.9254836786        5.3231316253
 O        -7.6350477741        0.8381314240        4.7924687616
 C        -8.4253594361        1.9829253366        6.7329003315
 C        -9.6628722535        1.0633156042        7.1150230460
 C       -10.9068566456        1.2653752176        6.2257051595
 O       -10.9641019241        1.7950410906        5.1191205721
 C       -12.0533386792        0.1994379875        6.5211390984
 C       -13.3367183672        0.9178341951        5.9542309075
 O       -13.4443719855        1.1638893638        4.7819654280
 C       -14.4682386004        1.3498851149        7.0363978248
 C       -15.5299102195        2.2692465030        6.3306685465
 C       -15.1718354558        2.9666417006        5.0517812139
 O       -14.2331587615        3.7412642504        5.0001957335
 C       -16.1100044107        2.5459361852        3.6753505935
 C       -15.5479932371        3.2763174346        2.3338326484
 O       -14.4366573106        3.7360942565        2.2568207666
 C       -16.5935891727        3.5201971144        1.1582633570
 C       -15.9291064718        1.0339204965        3.4026133826
 C       -17.5786863648        2.8228996397        3.9060657251
 C       -11.5672063455       -0.9808276655        5.4378383355
 C       -12.2286124823       -0.4894576817        7.7269597197
 C        -6.5227533868        2.6788490556        3.4698459287
 C        -7.4288327688        4.3350818296        5.2466815980
 C       -12.8412588423        4.0483120387       -1.2601498802
 C       -11.2581242811        2.0293769275       -1.4554031094
 C        -9.5557002205        3.6777413521       -6.1294449931
 C        -7.3673474612        2.5754881715       -5.7878032984
 C        -5.8681089393        8.8646249071       -9.3011867175
 C        -4.7117416398        7.3173141294      -10.9598675829
 H        -2.3873829328        8.5426376384      -10.8032701673
 H        -1.6977786808        9.0968074039       -9.3604802554
 H        -2.9133198507        9.9931283892      -10.0384521833
 H        -6.2762249386        7.6522538029       -6.9009490742
 H        -4.7093197583        6.8716937979       -6.5670984534
 H        -6.2561767647        5.9900537439       -5.2033189196
 H        -5.4292158115        4.9049659693       -5.9782692314
 H        -9.6426020374        5.2196830816       -4.0992708321
 H        -8.3796717446        5.9482545202       -3.0675212364
 H        -8.2173845814        3.9854065454       -1.7408958460
 H        -9.3262164856        3.0349723468       -2.7429200945
 H        -9.9575557447        4.3220907252        1.3307791230
 H        -8.9203959006        3.1944861356        0.5013183439
 H        -8.5975161191        1.7237601193        2.2376654042
 H       -10.1795598657        1.7507771622        2.8340894414
 H        -8.7144184363        3.0432724098        6.9838136525
 H        -7.7105615036        1.6350355052        7.3877981061
 H        -9.9527293873        1.3341486841        8.2111120580
 H        -9.2116779526        0.0551424538        7.0086229973
 H       -14.0335787772        1.8669341310        7.9298665424
 H       -15.0395899826        0.4654444845        7.3916668275
 H       -15.8020841987        3.1668409125        6.9789003463
 H       -16.5002274256        1.6554515132        6.1328822035
 H       -16.0608283276        4.1139387890        0.4945844990
 H       -17.2927996436        4.1210043330        1.6662148458
 H       -16.9471583921        2.5964626865        0.7817172556
 H       -14.9631026251        0.7933579635        3.4494497699
 H       -16.2909005551        0.7974796931        2.4088969551
 H       -16.4708840794        0.3929138429        4.1534537171
 H       -17.8306859420        2.4077434279        4.7807587064
 H       -18.1445455575        2.3645200964        3.1753732379
 H       -17.6443305938        3.9275664697        3.8451536576
 H       -11.5943817623       -0.6165769850        4.3458990550
 H       -12.2746740693       -1.8012036416        5.5266611000
 H       -10.5946192991       -1.3144253729        5.7888446309
 H       -11.4468630514       -1.1385966708        8.0709915107
 H       -13.0207379405       -1.2953530740        7.5734584893
 H       -12.5003160776        0.2612254372        8.5864827464
 H        -6.3623598557        3.4395558691        2.6652788309
 H        -6.7334340714        1.7397837284        2.9536811051
 H        -5.5645882239        2.6323291193        3.9497774150
 H        -8.2952986431        4.8816311653        5.4922222831
 H        -6.8941419004        5.1310155722        4.6984793610
 H        -6.7984231897        4.1407992349        6.1598177747
 H       -13.1316915289        4.1527492646       -2.3439141196
 H       -13.0409995693        5.0230099720       -0.8816027750
 H       -13.5181958844        3.3865274160       -0.9003363690
 H       -11.5467870815        1.8934878909       -2.5648758662
 H       -12.0123206106        1.3560340449       -1.0131745543
 H       -10.1970889466        1.7443956049       -1.4135923960
 H        -9.7698487270        3.8284076550       -7.2114311117
 H       -10.3853724801        4.1712780590       -5.5663711135
 H        -9.9998545789        2.6317876788       -5.8899838354
 H        -6.3909358823        2.4885990453       -5.2623509112
 H        -7.0397590944        2.5424142179       -6.8885473570
 H        -8.2653322119        1.8436373052       -5.4958289734
 H        -5.4767917027        9.8320143525       -9.5954047598
 H        -6.0799587956        9.0007830797       -8.2287278824
 H        -6.6815621364        8.3709928355       -9.7855769737
 H        -5.3347334784        6.5128194206      -11.0123123884
 H        -3.7666192496        7.2401191044      -11.3886874490
 H        -5.0369543998        8.1323521029      -11.5461066112
 Na      -12.4162273713        3.2711308294        3.4709703459
