117

 C        -2.4311150193        9.2601568157       -9.6290306145
 C        -3.1696633605        8.1427345788       -8.8255231430
 O        -2.9424583218        7.9526237646       -7.6558981493
 C        -4.4621235950        7.5689995197       -9.5127941899
 C        -5.1011586113        6.2707700758       -8.7064161880
 O        -5.1069538833        5.2689336018       -9.3289256183
 C        -5.8237161977        6.4476741470       -7.3173541337
 C        -6.0103792217        5.0344471738       -6.6589556836
 C        -7.4987653139        4.6239093584       -6.8082040699
 O        -8.2183159990        4.8632828222       -7.7053943355
 C        -8.0897746565        3.5440698312       -5.5861295147
 C        -7.8559916660        3.9623841611       -4.1485955118
 O        -6.8785953941        3.5061543452       -3.5460809668
 C        -8.8714597994        4.9060132228       -3.4704092897
 C        -9.5880857890        3.9914394471       -2.3105920274
 C       -10.6593053506        4.4097146120       -1.4272588286
 O       -10.8660970332        5.5978510420       -1.1762142578
 C       -11.7052894671        3.2838183773       -0.7570655742
 C       -11.3533764409        3.3371177732        0.8211429426
 O       -12.2077153540        2.8042284836        1.5469045997
 C        -9.9714024199        3.7214044579        1.3267580102
 C        -9.3325996806        2.6026022178        2.2455695623
 C        -8.9262950493        3.3423874087        3.6194329124
 O        -9.7848581804        4.0288894975        4.1297797144
 C        -7.5585254616        3.0964132170        4.1465731858
 C        -7.7410011087        1.9988688720        5.2143262869
 O        -7.1895062711        0.9042894435        5.0912292160
 C        -8.4650191396        2.3204567814        6.5261323067
 C        -9.3963018880        1.1413736687        6.8217073782
 C       -10.7161096649        1.2518847225        5.9943357560
 O       -10.9013473469        2.1473941331        5.2204312930
 C       -12.0574778393        0.3091775241        6.3546178560
 C       -13.3332146179        1.2424625494        5.7926621467
 O       -13.5125076028        1.2641839579        4.5639636030
 C       -14.3503010715        1.8135422806        6.8004781852
 C       -15.6472382830        2.2437196550        6.0725621486
 C       -15.3031254293        3.0779702251        4.8048304721
 O       -14.4169443660        3.9267848058        4.7743577796
 C       -16.1887300932        2.8150133273        3.5302690525
 C       -15.4889217820        3.4336523609        2.2521274425
 O       -14.3737739904        3.8488621176        2.2977431395
 C       -16.3445220667        3.3354234974        0.9057307975
 C       -16.3375606028        1.2807293265        3.1828440092
 C       -17.3695687788        3.6184796278        3.9723484098
 C       -12.1632369381       -1.0681540530        5.5783948324
 C       -12.1439554611        0.1772074039        7.9441296203
 C        -6.5182090515        2.7891947917        3.0982029335
 C        -7.0579462853        4.3639027655        4.9062247719
 C       -13.1913520051        3.7640558969       -0.7582600470
 C       -11.5257147585        1.8867027449       -1.4368684694
 C        -9.4990110577        3.1352452400       -5.9655658273
 C        -7.3296623804        2.2643013228       -6.0071210112
 C        -5.4690775890        8.8031469048       -9.2773032932
 C        -4.1680714772        7.1631454241      -10.9937754066
 H        -2.7371771545        9.3411538029      -10.6304222310
 H        -1.3379811970        9.1453690228       -9.5094264876
 H        -2.5401408799       10.3305798373       -9.1409446880
 H        -6.8583271582        6.7978667042       -7.5457252854
 H        -5.2888841924        7.1315283485       -6.6911293022
 H        -5.5653833715        4.6966971785       -5.7291952369
 H        -5.4599659585        4.3734662360       -7.2656540670
 H        -9.7197517970        5.1656719806       -4.1267288786
 H        -8.5045777811        5.8628430491       -3.0665831587
 H        -8.6364030352        3.9082517354       -1.6559171593
 H        -9.8120849405        3.0494334987       -2.7071666684
 H       -10.0948005830        4.5939849313        1.9287256312
 H        -9.2509669924        3.8888246277        0.4604643821
 H        -8.4004402724        2.0836805558        2.0508631316
 H       -10.0907057926        1.8500676107        2.5216285179
 H        -9.0546252587        3.2567120767        6.7192770356
 H        -7.6222234513        2.3048559276        7.2898685146
 H        -9.5678184951        1.1877847752        7.9522246289
 H        -8.9619008747        0.2078789424        6.5531763384
 H       -13.8833556901        2.6543211753        7.2559850662
 H       -14.5423954866        1.0139612103        7.5605391944
 H       -16.2588711829        2.8951671046        6.6268638447
 H       -16.1052498801        1.4771137695        5.5392946331
 H       -15.7002874973        3.5228585971        0.0575740859
 H       -17.0366690946        4.2010452387        1.0835682771
 H       -16.7717205426        2.3351443780        1.0212033365
 H       -15.4862104001        1.0635757370        2.6445864557
 H       -17.3148553749        1.0007449393        2.6358815191
 H       -16.3245707876        0.5452666334        4.0224868001
 H       -17.8118856515        3.0842881838        4.8113082966
 H       -18.2132345175        3.5899416008        3.2327315872
 H       -16.9296762296        4.6629760936        4.1275473422
 H       -11.2185892127       -1.0581060051        4.9869980096
 H       -12.9708146816       -0.9622728498        4.8456604599
 H       -12.3870818476       -1.9329081745        6.1267736218
 H       -11.3081061634       -0.3203226087        8.2461846908
 H       -12.8313626956       -0.5219081285        8.3085884972
 H       -12.2137107721        1.0929739076        8.4984810983
 H        -6.4789687321        3.3896832705        2.2063914255
 H        -6.7238898352        1.7621179634        2.7231744641
 H        -5.5551666051        2.7711357492        3.5394231314
 H        -7.4578756276        4.5513982634        5.8990637369
 H        -7.1760597708        5.2563321241        4.2704235734
 H        -5.9651912545        4.3472492530        5.0577305313
 H       -13.6600175655        3.6497353931       -1.8255338767
 H       -13.1868802913        4.8445611527       -0.5543638721
 H       -13.9233138396        3.3283012095       -0.1239856971
 H       -11.7718046217        1.7535464181       -2.4728685807
 H       -12.1484526625        1.2168900005       -0.8590083358
 H       -10.5224858329        1.4483659874       -1.2125023279
 H        -9.6837852945        3.0404422638       -6.9932632424
 H       -10.3108353056        3.7964060287       -5.7154751299
 H        -9.7413566954        2.2120777087       -5.4888416592
 H        -6.3479340779        2.4983519606       -6.0091881186
 H        -7.5775389158        2.1407817271       -7.0127538775
 H        -7.4595219380        1.4195172822       -5.3600538007
 H        -5.0461013998        9.5082128936       -9.9525328565
 H        -5.1090346061        9.1615430715       -8.3266361429
 H        -6.5207550377        8.6219598041       -9.2507435425
 H        -5.0955456758        7.2589761467      -11.6097544657
 H        -3.7492186763        6.1035027485      -10.9041379776
 H        -3.2123599089        7.6490048595      -11.3572178614
 Na      -12.1921749399        3.3888014291        3.8800301253
