117

 C        -2.3961336927        9.1524758635       -9.1780724290
 C        -3.2635394230        8.1202614380       -8.5165755380
 O        -2.9009834667        7.7375796580       -7.4206730426
 C        -4.4579611471        7.4461048329       -9.4153775382
 C        -5.0278579500        6.1504959828       -8.8413304742
 O        -4.8874264471        5.1131274006       -9.5316381435
 C        -5.8029126945        6.2698749196       -7.4658955439
 C        -6.0643981509        4.9135352291       -6.9293455921
 C        -7.5574057145        4.4516506876       -6.7900492260
 O        -8.5152124786        5.1526647599       -7.1507425387
 C        -7.9833935935        3.2571025045       -5.6613216743
 C        -7.9504830487        3.5399997536       -4.2072471220
 O        -7.0374957411        3.1929320867       -3.5071153061
 C        -9.0813456980        4.4922401199       -3.4734453555
 C        -9.8736873312        3.6657215329       -2.4229274382
 C       -10.8921827467        4.2935438374       -1.4090823344
 O       -10.9055137982        5.5118317389       -1.2797808808
 C       -11.8312532905        3.2348869636       -0.7638606800
 C       -11.4220066211        3.3030800102        0.7652512741
 O       -12.0547146733        2.8298186367        1.6461414606
 C        -9.9659056059        3.8623262805        1.2193466863
 C        -9.2869077329        2.9105640837        2.1954241500
 C        -8.7914534948        3.5938858898        3.5227931149
 O        -9.5691773186        4.3080918507        4.1261455322
 C        -7.3813143842        3.1942624843        4.1501828371
 C        -7.5795695931        2.0523070287        5.2275795880
 O        -7.0064733759        1.0244523968        5.1671155488
 C        -8.5798054085        2.2604882009        6.3917991874
 C        -9.4611984646        0.9771243276        6.5718057777
 C       -10.8437944267        1.2459748113        5.9842702669
 O       -11.0249264444        2.0917931102        5.0880737379
 C       -12.0576225003        0.3866021676        6.4883411346
 C       -13.3008383247        1.1795769045        5.9105536142
 O       -13.3802546795        1.1306960120        4.7177238566
 C       -14.1527098281        2.1915639530        6.7853869418
 C       -15.5430686602        2.3112741733        6.0841153011
 C       -15.3480636697        3.2937647747        4.8034761622
 O       -14.4409131674        4.0583873409        4.8518770693
 C       -16.1819846229        3.1051355291        3.4776999888
 C       -15.3943990057        3.5895394383        2.1303776767
 O       -14.2626297201        4.0311333366        2.1873705803
 C       -16.3346761705        3.5774328027        0.8147068804
 C       -16.8085143001        1.6641153841        3.2496219739
 C       -17.5737704843        3.9508918650        3.6407916464
 C       -11.9060812066       -1.0888707366        5.9070150903
 C       -12.1036537221        0.3072012454        8.0751624196
 C        -6.3003071901        2.6622547659        3.0502410865
 C        -6.7725475385        4.4988769985        4.7127758563
 C       -13.3238645105        3.7600491088       -0.9405296692
 C       -11.7153161984        1.6562712621       -1.2243695021
 C        -9.4574824217        3.0154035449       -5.9731338219
 C        -7.0772445607        1.9278157443       -5.8376568228
 C        -5.5296185694        8.6368181518       -9.5759000062
 C        -3.8734873764        7.1956696999      -10.8699887987
 H        -2.8841373909        9.8678530776       -9.8064565277
 H        -1.4711371795        8.7382257840       -9.5725255979
 H        -2.0218921490        9.6892123872       -8.3895696780
 H        -6.7844723251        6.6329375355       -7.6840317473
 H        -5.3212524468        6.8969634151       -6.6716643061
 H        -5.7349818570        4.6450049419       -5.9201975532
 H        -5.3355616072        4.2105699501       -7.4769502617
 H        -9.8410977759        5.1154301582       -3.8909130644
 H        -8.6069954604        5.2281171635       -2.8125365332
 H        -9.1668622026        3.0261470327       -1.9884377486
 H       -10.6790347003        3.0972463974       -3.0568478825
 H       -10.1433568059        4.8493343560        1.7291593264
 H        -9.2985879309        3.9073264044        0.4553419240
 H        -8.4298086538        2.3003387109        1.9651979713
 H       -10.1060119716        2.2952187346        2.6053701931
 H        -9.2706732235        3.0452665610        6.1814939715
 H        -8.0514673098        2.6487355519        7.2611523680
 H        -9.6072380690        0.7375790494        7.6078580269
 H        -8.8686273084        0.0934972168        6.0569180231
 H       -13.5710918052        3.1478357467        7.0377784583
 H       -14.5219228945        1.7284606712        7.6980966728
 H       -16.1977988899        2.8661462463        6.8192367056
 H       -15.8017945747        1.3519241569        5.5886396821
 H       -15.6731415455        3.5830996182       -0.0148271086
 H       -16.8266895070        4.4746580443        0.8844105834
 H       -16.8677768922        2.7092769345        0.9561391324
 H       -16.0146900997        0.8782813982        3.0472985962
 H       -17.5774736437        1.6994620191        2.5237232491
 H       -17.3610367587        1.3482409333        4.0646383220
 H       -18.2378257081        3.4624235875        4.3814140302
 H       -18.0399059319        3.9334490517        2.6927082259
 H       -17.3201030243        4.8640992684        3.9172581644
 H       -11.0038655886       -1.4517681378        6.3339443887
 H       -11.8358245243       -1.0718928981        4.8055232036
 H       -12.8975698219       -1.6203409394        6.0284593780
 H       -11.3381402619       -0.4380181642        8.6058028966
 H       -13.1038692398        0.0414788182        8.5636862185
 H       -11.9334947602        1.3336974037        8.4870942806
 H        -6.3143681480        3.3906801940        2.2321110318
 H        -6.5035279242        1.7029345004        2.5826054377
 H        -5.2391497759        2.6072120013        3.4327422257
 H        -7.2292427985        4.6847100292        5.7325050234
 H        -6.8329489619        5.3714567238        4.0448173040
 H        -5.7266333372        4.4641819181        4.9832277924
 H       -13.6358401471        3.9468424434       -1.8746281883
 H       -13.5815096207        4.5300884299       -0.2625189176
 H       -14.0567657637        2.9817118159       -0.5340210953
 H       -12.0803614094        1.7025213461       -2.2509459031
 H       -12.0775238354        0.8174369675       -0.5937489331
 H       -10.6949259834        1.2271505723       -1.2962606951
 H        -9.7341751443        2.2223835782       -6.8192759327
 H        -9.8641607972        3.9882981737       -6.4635990136
 H       -10.1702981612        2.8032422267       -5.1662881163
 H        -5.9508968777        2.3407270278       -5.8034381381
 H        -7.3090438232        1.2883002162       -6.7977159494
 H        -7.0740084602        1.4002047405       -4.8302608962
 H        -4.9641086083        9.4331330079      -10.0618893742
 H        -6.1814408242        8.7655571970       -8.7223228660
 H        -6.1027641534        8.1794233590      -10.3775492592
 H        -3.9616084297        8.1051704683      -11.4892835712
 H        -4.3177882774        6.3511940514      -11.3603171157
 H        -2.8750366645        6.9445036893      -10.6556566030
 Na      -12.4181956851        3.6069878550        3.7908832990
