117

 C        -2.8009646288        9.0482450369       -7.8986176491
 C        -3.5700914571        7.6395227397       -7.8114271922
 O        -3.5779460431        6.9496301346       -6.8161226930
 C        -4.2571115115        6.9848404025       -9.1481109703
 C        -5.0526479768        5.6492501020       -8.9116253440
 O        -4.4988782934        4.5814821580       -9.1836464951
 C        -6.4294474777        5.6824947712       -8.3430491700
 C        -6.8012850543        4.2387129782       -7.7388956135
 C        -7.4920177699        4.2114139688       -6.3962754292
 O        -7.5922343106        5.1870192545       -5.7465140286
 C        -7.8126473777        2.8662595373       -5.8870245503
 C        -8.1383425119        2.9662750721       -4.3498876778
 O        -7.3308588960        2.5357624482       -3.5060841114
 C        -9.2647105363        3.8158344200       -3.7617111768
 C       -10.2927091221        2.9402511168       -3.0014722451
 C       -10.8742730706        3.6798848337       -1.7749316503
 O       -10.4610993884        4.6823053479       -1.3573640859
 C       -11.7558180464        2.9086092589       -0.7787306014
 C       -11.3317598433        3.0489450556        0.7318839611
 O       -11.9132878045        2.4041696982        1.5794704693
 C       -10.2213525468        3.9468385115        1.2078083187
 C        -8.9489242396        3.1964467498        1.8758908460
 C        -8.4367281992        3.8886653274        3.1951792342
 O        -9.0403186558        4.7382879099        3.8084156887
 C        -7.0682907421        3.5246071444        3.9191123381
 C        -7.5451505274        2.4051956002        4.8404577560
 O        -7.3674132284        1.2401257479        4.6592938895
 C        -8.4675575633        2.7203591114        6.0764718030
 C        -9.3323478816        1.5249679974        6.4259339739
 C       -10.8509241525        1.7893964878        5.8527214741
 O       -10.9406549546        2.4730221403        4.8655570036
 C       -12.0040225879        1.0865369736        6.5594692058
 C       -13.4391635011        1.4646251847        5.8913561613
 O       -13.6677161640        1.1294285292        4.7585773276
 C       -14.3384387454        2.4048884156        6.7328944097
 C       -15.5930232432        2.6932355264        6.0409851762
 C       -15.3258097496        3.6067984159        4.8253429874
 O       -14.2458181743        4.2261322075        4.8236557454
 C       -16.4161202687        3.9008138615        3.7887787222
 C       -15.7543647875        4.2522158615        2.4696860684
 O       -14.6056302855        4.0185007399        2.2080929738
 C       -16.4974151935        4.9332840306        1.2630187142
 C       -17.1997122942        2.6442847872        3.4255549415
 C       -17.2703155101        5.1784134600        4.2515063103
 C       -11.7338913713       -0.4857685022        6.2885764591
 C       -12.1873333294        1.2320943087        8.0268683704
 C        -6.1277812201        3.0760536109        2.8101220401
 C        -6.6082302442        4.7587156526        4.7751993394
 C       -13.1983844130        3.3609195857       -1.0662379253
 C       -11.9046642554        1.3938311067       -1.0159026179
 C        -8.9137247553        2.3669811161       -6.9284388629
 C        -6.7057654640        1.8804561589       -6.0953987267
 C        -5.2579040544        8.2038948480       -9.5915020415
 C        -3.1282671315        6.7303825004      -10.1387840647
 H        -3.3622974200        9.8226997225       -7.1769739452
 H        -2.7831996008        9.5174122652       -8.9363331632
 H        -1.8958960320        9.0052391296       -7.3551270758
 H        -7.2387769290        5.9629186074       -9.0874640033
 H        -6.4053280991        6.4233805182       -7.5621145216
 H        -5.7604490371        3.8347045267       -7.5137745310
 H        -7.1304593772        3.6010448582       -8.5345350118
 H        -9.6590685168        4.4514109636       -4.6249251918
 H        -8.7038487385        4.4858844675       -3.1110592478
 H        -9.6540793015        2.1123860681       -2.5297579111
 H       -10.9366793654        2.4430586214       -3.6174839256
 H       -10.5963680882        4.6388614948        2.0183173022
 H        -9.9227786001        4.5388852600        0.2744204930
 H        -8.1496941959        3.1924617318        1.1356479927
 H        -9.2377891432        2.1924067193        2.1588938309
 H        -9.1505345686        3.6301630810        5.8878428465
 H        -7.9299169238        3.1215844851        6.8797480687
 H        -9.2917070982        1.4147180832        7.4916600360
 H        -8.8953512379        0.6901113274        6.0456222848
 H       -13.8003133470        3.3017269822        6.9765122686
 H       -14.6210957320        2.0005671286        7.7637419046
 H       -16.2390251370        3.3395275739        6.5259060715
 H       -16.1371417729        1.8649033213        5.5764919505
 H       -16.2022830542        4.2222774311        0.4974724788
 H       -16.0334946793        5.9022330494        1.2464794444
 H       -17.5644144025        4.9893746409        1.4073635631
 H       -16.5870741883        1.9058080068        2.8407596809
 H       -17.8244385011        2.9466397690        2.6735323600
 H       -17.7484608771        2.1170918622        4.2666680684
 H       -18.1541281690        4.9687216986        4.9190080856
 H       -17.4594537437        5.7812418333        3.3107311100
 H       -16.6193210673        5.8454141901        4.8270016408
 H       -12.2408790284       -0.9313510065        5.4144866751
 H       -11.9323019233       -0.8830501382        7.2409105841
 H       -10.6498452668       -0.5065107814        6.1323606716
 H       -11.3720082167        0.7443402042        8.6023982685
 H       -13.2409737593        0.9739195350        8.2093566384
 H       -12.0988912413        2.2434009684        8.4302398641
 H        -6.3014176449        3.5299577923        1.7862201684
 H        -6.2100439403        2.0056949939        2.7357389480
 H        -5.1036870698        3.1895105240        3.1584659425
 H        -7.1938224717        5.0578336870        5.5831259633
 H        -6.5432980295        5.6030663406        4.0989453190
 H        -5.5586606235        4.6362816293        5.1722923463
 H       -13.6225863039        2.8021342904       -1.8625166844
 H       -13.3936810238        4.4048891451       -1.3964549606
 H       -13.8645480553        3.1045737634       -0.2166683643
 H       -12.2180517635        1.0182598086       -2.0697412252
 H       -12.7428996776        0.9993947289       -0.3911845711
 H       -11.0041574680        0.8129135722       -0.8465561176
 H        -8.6740181400        2.4067301890       -7.9864337594
 H        -9.6797805666        3.0684206208       -6.7843873389
 H        -9.3698639828        1.3505129354       -6.7127005715
 H        -5.6919788576        2.2238992418       -5.8598359805
 H        -6.8391307365        1.3593934091       -6.9948437992
 H        -6.9516536319        1.0107463541       -5.5523494055
 H        -4.7451794667        9.1363022609       -9.9385923483
 H        -5.9063764244        8.2829056881       -8.6867562079
 H        -5.8678072135        7.7866824834      -10.4219376400
 H        -3.1944106709        5.7105549311      -10.2822517045
 H        -2.2785624605        7.0743485677       -9.6693651764
 H        -3.1846243702        7.0782475499      -11.1494845924
 Na      -12.9216484808        2.9076640591        3.5903429061
