117

 C        -3.1445177295        8.7559364443       -7.2938135682
 C        -3.8532465525        7.4055905457       -7.5701448967
 O        -3.7623575655        6.6523111707       -6.6082959908
 C        -4.1719308227        6.9878078496       -9.0798414796
 C        -4.8876166716        5.5349120144       -8.8421081113
 O        -4.2914024710        4.5205666434       -9.0820141034
 C        -6.3531189573        5.5724643414       -8.5258702757
 C        -7.1014015398        4.2222912379       -8.1444065435
 C        -7.2462842026        4.0608556967       -6.5176197582
 O        -6.9036234665        4.9699488968       -5.9003443936
 C        -7.6868799602        2.6352542910       -5.8701006731
 C        -8.1556560667        2.5411679363       -4.3519204816
 O        -7.7012357245        1.6844854409       -3.5700181282
 C        -9.4571674284        3.4377873043       -3.9616445262
 C       -10.1993922389        2.6262044148       -2.9550539413
 C       -10.6131407590        3.4270932276       -1.6952063748
 O       -10.4923032473        4.6065761408       -1.6924614725
 C       -11.4412182183        2.6000959294       -0.7209487749
 C       -11.2725711194        2.7787202768        0.7696483332
 O       -11.8055414948        1.8985445407        1.4714252290
 C       -10.4888222641        3.9943790668        1.3767488802
 C        -9.1194533543        3.3467213903        1.8964292327
 C        -8.5111669729        4.1577799068        2.9879443370
 O        -9.0299499278        5.1226480007        3.4969251531
 C        -7.2044049233        3.6649492719        3.6716358797
 C        -7.8027735937        2.5690463789        4.5674090359
 O        -7.9699537759        1.4555571091        4.1101512207
 C        -8.3537652150        2.9763528024        5.9894385978
 C        -9.4316906360        1.9869357736        6.5290908773
 C       -10.8696536106        2.1703039050        5.9267370852
 O       -11.1102295364        2.8053198625        4.9702292069
 C       -11.9494084604        1.2762993964        6.6774486187
 C       -13.4042476904        1.6783575006        6.2293520714
 O       -13.6867388575        1.2506911978        5.1109157279
 C       -14.4801559847        2.3970660286        6.9529261316
 C       -15.6417214423        2.7006066483        6.0043120983
 C       -15.3296429018        3.7746981845        4.8982820259
 O       -14.2075790345        4.2787690850        4.8983838159
 C       -16.4473802623        4.3204256518        3.8807270178
 C       -15.8075634467        4.6551127097        2.4593598834
 O       -14.8712710635        3.9306036777        2.1720506341
 C       -16.3580906505        5.8269895662        1.5574505117
 C       -17.5985424388        3.3133095963        3.5677860224
 C       -17.0160368794        5.6157103860        4.5276468055
 C       -11.7370123286       -0.2833492278        6.3499042716
 C       -11.7216690582        1.4183466048        8.2074184263
 C        -6.1043849645        3.0819251305        2.6321150137
 C        -6.6249248305        4.8226789132        4.4021064858
 C       -12.8824248516        3.4015284809       -0.7854113644
 C       -11.6251811632        1.0613753875       -1.1366647890
 C        -8.9677801839        1.9557734257       -6.7328332621
 C        -6.5617070247        1.6296943925       -6.2294297952
 C        -4.9780213586        8.0284121977       -9.8304897027
 C        -2.7856082909        6.7600389809       -9.7974210660
 H        -3.5812791046        9.4324331211       -6.4848566244
 H        -3.0107499035        9.4060498057       -8.1091222201
 H        -2.3077508179        8.4410468772       -6.8573291744
 H        -6.9087767047        6.1318605656       -9.2504780869
 H        -6.3512353296        6.1693190698       -7.5789200351
 H        -6.5021364475        3.4471093401       -8.5793900353
 H        -8.1208788278        4.2345160546       -8.6774702210
 H        -9.9216696816        3.4591568514       -4.9206982086
 H        -9.1483834473        4.4069001213       -3.5674261043
 H        -9.5338517124        1.7375046944       -2.6801678741
 H       -11.0396021773        2.1367141034       -3.4545750972
 H       -10.9442465840        4.4671645571        2.1779394319
 H       -10.4211216650        4.7562807440        0.5202721512
 H        -8.6240459363        3.1397777337        0.9082802362
 H        -9.3531494143        2.3598854212        2.3073886239
 H        -8.7257162329        3.9920718758        5.9183172130
 H        -7.4390935890        3.0985091975        6.5503926570
 H        -9.4507567670        2.0223015959        7.7150581339
 H        -9.0496883760        0.9336927276        6.3503452665
 H       -14.0813808495        3.2083910319        7.5526187920
 H       -14.9673257940        1.8218393467        7.7931339411
 H       -16.5706119076        3.1492993860        6.5177541505
 H       -16.1353714345        1.8197017848        5.4284774014
 H       -16.0598195183        5.5633445568        0.5855530554
 H       -16.0402180708        6.7632358328        2.0174190430
 H       -17.4390640514        5.7592895002        1.6102548760
 H       -17.2598956016        2.3058282032        3.6617874786
 H       -18.0356963890        3.3507859616        2.6081172226
 H       -18.2992947833        3.4336924861        4.4464269004
 H       -17.4271020535        5.3973468034        5.4619220046
 H       -17.8113986382        6.0678013374        3.9910022757
 H       -16.2393518734        6.3530347166        4.6407127362
 H       -10.7121256086       -0.2568656539        5.9529094185
 H       -12.5470611319       -0.5148240859        5.6432178886
 H       -11.7940728182       -0.9542426047        7.1842410029
 H       -10.7911007083        1.0199472467        8.5929203075
 H       -12.3880919922        0.6287591700        8.6876805370
 H       -11.8796525656        2.4349492044        8.6869181181
 H        -5.3663957304        3.8794348752        2.5077731327
 H        -6.4721790543        2.8760971683        1.6205708621
 H        -5.6263650090        2.2080459493        3.0002058024
 H        -7.3649098882        5.3988158641        4.9071136891
 H        -6.2662221662        5.6067659247        3.6920399997
 H        -5.8238895326        4.4452483740        5.1433788060
 H       -13.3723877754        3.6590234372       -1.7432172728
 H       -12.8869080705        4.3714631411       -0.2940524258
 H       -13.5324167742        2.7410518555       -0.3566451323
 H       -12.1651741374        1.0399784599       -2.1300349230
 H       -12.3480035681        0.4906698891       -0.6434563324
 H       -10.7075374696        0.5967563266       -1.3673029398
 H        -8.6369329940        1.3720914596       -7.6522630851
 H        -9.7241250093        2.7114344818       -6.9108808371
 H        -9.5052182853        1.1376905855       -6.0343605596
 H        -5.4861923691        1.7868208527       -5.7232418652
 H        -6.2776826186        1.7143664209       -7.3596510587
 H        -6.9559046693        0.5678802402       -5.9352504324
 H        -4.5908868694        9.0198803785       -9.6480406047
 H        -5.9687952927        8.0878853765       -9.3706569718
 H        -5.0155566530        7.7248557012      -10.8882390814
 H        -2.8861674896        6.8964685592      -10.9009447080
 H        -2.1648512405        5.9116424545       -9.3732766739
 H        -2.1043893232        7.6578909075       -9.4850690370
 Na      -13.0660998579        2.6467536098        3.1912512137
