117

 C        -3.5382283389        8.6150530221       -7.0545884261
 C        -3.9645112738        7.2419956759       -7.3378910381
 O        -4.2842286148        6.3962936476       -6.5507703891
 C        -3.9250605071        6.7757901436       -8.8464252505
 C        -4.7924938090        5.4464635253       -8.7512541129
 O        -4.3492381664        4.3594397737       -9.0694797707
 C        -6.3266251275        5.5555819617       -8.3416755942
 C        -6.9743558209        4.1725079550       -8.1656342753
 C        -7.1072959461        3.8532948833       -6.5884427209
 O        -6.7888052673        4.5379851802       -5.5766854392
 C        -7.5659619739        2.3416351206       -6.2273536172
 C        -7.9968158181        2.3481281135       -4.7329899541
 O        -7.5169351195        1.4797668198       -4.0938862812
 C        -9.0788775023        3.3700810989       -4.1399709878
 C       -10.0588329262        2.6297831829       -3.1161479644
 C       -10.6900518354        3.2562961838       -1.8699278211
 O       -10.2433329003        4.3668059839       -1.5072752618
 C       -11.7270864544        2.4459320796       -0.7926665286
 C       -11.3443493869        2.5657127481        0.8176785205
 O       -11.6396158718        1.6433342251        1.5326826023
 C       -10.6040038461        3.8523293489        1.3777576517
 C        -9.0860812246        3.5980297657        1.6263012679
 C        -8.5086458027        4.5011337544        2.7159401135
 O        -9.0352797855        5.5334682820        3.0720201213
 C        -7.2874371150        3.8144874575        3.4775004658
 C        -8.1260456698        2.7146827031        4.3936856829
 O        -8.3653897397        1.5865737823        3.9936114517
 C        -8.5593621294        3.2016997863        5.7364657685
 C        -9.4367992837        2.3362189938        6.5866653932
 C       -10.9084196702        2.2647667231        6.0732279815
 O       -11.2419679648        2.8730236351        5.0271881652
 C       -12.0794400042        1.4477380165        6.7026856644
 C       -13.4404277054        1.6254440830        6.1182308205
 O       -13.6687984540        1.1931105571        4.9981858592
 C       -14.4435434626        2.4699596636        6.8461298001
 C       -15.6928244170        2.8964206983        6.0717781517
 C       -15.2595823103        3.9393890287        4.9822978839
 O       -14.0971333002        4.1853621702        4.8347856607
 C       -16.3140403741        4.6155530879        4.1976824801
 C       -15.6723472661        4.7805085739        2.6955458186
 O       -14.9862137843        3.9244850982        2.1343248597
 C       -16.1520553666        6.0197256754        1.9041801975
 C       -17.5409368541        3.7001294993        3.9868566311
 C       -16.7838729611        5.9982767034        4.8064352807
 C       -11.6440679255       -0.0474529490        6.4381013853
 C       -12.1503128608        1.6245475417        8.3041287906
 C        -6.3580963134        3.2044478603        2.4586672415
 C        -6.3624158344        4.7534259041        4.4272726589
 C       -13.0754275244        3.1454668304       -0.9047068395
 C       -11.9312805113        0.9762515841       -1.1122495693
 C        -8.7187480247        2.0201528420       -7.1498546126
 C        -6.2818287898        1.3829889730       -6.2667321147
 C        -4.8214901514        7.8639367807       -9.5526456819
 C        -2.6801440575        6.5079059910       -9.6442604937
 H        -4.1198685242        9.1391773737       -6.3247150378
 H        -3.6068766459        9.3296818587       -7.9126116098
 H        -2.4422705891        8.5182694963       -6.5414034956
 H        -6.6958430082        5.8334702142       -9.3677084248
 H        -6.7263643842        6.2512450510       -7.6136907599
 H        -6.4899810732        3.2592103798       -8.6143958660
 H        -7.9636972829        4.3140126773       -8.5137939528
 H        -9.5256153562        3.9958648936       -4.9362888858
 H        -8.4504739959        3.9359076319       -3.4483975402
 H        -9.5426170024        1.8424522866       -2.5304864636
 H       -10.7896849079        1.9836072528       -3.6650628439
 H       -11.1597344683        4.1467168323        2.3717438566
 H       -10.7875976859        4.7033621819        0.7779849769
 H        -8.8180565170        3.6833739358        0.5924095027
 H        -8.8365480520        2.5640408159        1.8679509583
 H        -9.0016754508        4.1894163778        5.5034607689
 H        -7.5692813362        3.4241218635        6.2489231453
 H        -9.3949017014        2.7339851318        7.5165646601
 H        -9.0496429498        1.3778499205        6.6930839884
 H       -13.8856960954        3.3604514388        7.2760262163
 H       -14.8199066112        2.1425376082        7.7974691912
 H       -16.4448767633        3.3281717120        6.6621781935
 H       -16.2204401748        2.1421498246        5.6112787409
 H       -15.5365542169        5.9885725453        1.0273720875
 H       -16.0267580010        6.7947749527        2.6316972005
 H       -17.1722820431        5.9472718329        1.5797926920
 H       -17.3607138372        2.9122548555        3.2571634794
 H       -18.4303005966        4.3499988494        3.5815267743
 H       -17.8715141236        3.2416661320        4.8718921610
 H       -16.8671659565        5.9493509729        5.9034019675
 H       -17.8763978048        6.0934178009        4.6959238016
 H       -16.2400977395        6.9762743613        4.4422967273
 H       -11.0804730684       -0.4697094539        7.2579401661
 H       -11.2005800830       -0.0481802184        5.4292003777
 H       -12.6113239941       -0.5289720725        6.2562701917
 H       -11.6237952417        0.7576528926        8.7709246841
 H       -13.0397389584        1.4621314927        8.8616130115
 H       -11.6445362457        2.5467756825        8.6029492329
 H        -5.4181759264        3.7430131642        2.4441308142
 H        -6.8372955753        3.2967795835        1.4717749459
 H        -6.1588222866        2.1221160299        2.6924713168
 H        -6.9150979598        5.6388587797        4.8887846788
 H        -5.6731009144        5.2651822658        3.7821674592
 H        -5.8604520113        4.1984448230        5.1537387148
 H       -13.5107526380        2.8851857769       -1.9331758323
 H       -12.9363915234        4.2140608576       -0.9374814739
 H       -13.9093705966        2.8603400215       -0.2347257252
 H       -12.7324993382        0.6995028813       -1.7694765957
 H       -12.3914071400        0.4992826042       -0.1860247723
 H       -11.0207467757        0.3864228759       -1.4666657532
 H        -8.1877287494        2.0713719066       -8.0853595941
 H        -9.6212633068        2.6878377723       -7.1159914406
 H        -8.9862905463        1.0040750107       -7.0845767312
 H        -5.6602376981        1.7173743533       -5.5099819953
 H        -5.6858270823        1.5471268043       -7.0930486944
 H        -6.4929476804        0.3648001149       -6.0306435179
 H        -4.0745821975        8.6368872995       -9.8649457786
 H        -5.3704652983        8.5132278280       -8.8649418879
 H        -5.4091687765        7.4812242312      -10.4043258273
 H        -2.6246418969        7.2351102719      -10.4424245016
 H        -2.7333818763        5.4993731952      -10.0733731057
 H        -1.7912707962        6.5326507729       -9.1343401136
 Na      -13.0493822198        2.7336425520        3.4234601614
