117

 C        -8.1845738698       -6.3320947035        4.0149831194
 C        -7.2670510942       -5.6466791523        3.0556679206
 O        -6.4620267365       -6.2443395306        2.4159190899
 C        -7.7282892349       -4.1133495747        2.7433805640
 C        -9.1058069470       -4.1007939410        2.0926192273
 O        -9.4982558873       -5.1586825820        1.5327092739
 C       -10.0313276930       -2.9616154866        2.2046697635
 C       -11.3620995781       -3.3021923670        1.4488167721
 C       -12.0954197003       -2.0640013376        0.9917915601
 O       -11.9899248450       -1.7105646555       -0.2094538208
 C       -13.0155557772       -1.1081712278        1.8649387470
 C       -12.0131565154        0.1506175397        2.2975674355
 O       -11.4702892645        0.0765813033        3.3663935949
 C       -11.7167944586        1.2876752954        1.2668986751
 C       -10.2636580829        1.7137784169        1.1488117023
 C        -9.8911069826        2.6247418976        0.0009336808
 O        -9.3696019660        3.7007564187        0.2360613060
 C       -10.1182179175        2.0839391162       -1.4438351516
 C       -11.5052347223        2.6672293505       -1.9753643058
 O       -12.4345873097        2.9669878320       -1.2131881802
 C       -11.6695436333        2.7127051855       -3.4931521263
 C       -12.4004214966        3.9994212598       -3.7890229512
 C       -11.7289861943        5.2356500662       -3.0048920304
 O       -10.5494959757        5.0641532621       -2.7015472586
 C       -12.4218799145        6.5103288206       -2.5200016543
 C       -11.3677999356        7.6774776462       -2.4364497117
 O       -10.5276100757        7.6526376693       -1.5887214342
 C       -11.2728734150        8.7992680626       -3.5377205751
 C       -10.0438208810        9.8045951311       -3.3423069016
 C       -10.2936024540       10.6003691533       -2.0207803647
 O       -11.3898168211       10.4454101468       -1.5256545080
 C        -9.1049929314       11.4621171442       -1.3095517748
 C        -8.3278531424       10.4851971931       -0.2358659617
 O        -7.1775873899       10.1005626167       -0.5041980350
 C        -8.9364680336       10.0456597081        1.1083534250
 C        -7.8841987758        9.3180471627        1.9175661117
 C        -7.7538411971        7.9250808395        1.4228358693
 O        -8.7566496981        7.3241324020        1.2050542176
 C        -6.2878880732        7.2962398957        1.0641422549
 C        -6.3009282000        6.9639872083       -0.4541223756
 O        -7.1481865989        6.2547364515       -1.0320856615
 C        -4.9951931976        7.1881945687       -1.3094573577
 C        -5.0463732648        8.1864634136        1.4511814606
 C        -6.2451855257        5.8808795973        1.6335684775
 C        -8.0429195871       11.8577578307       -2.3686166523
 C        -9.6417730619       12.6488019694       -0.4102092819
 C       -13.6204190024        6.9601124379       -3.4008933207
 C       -12.8940164316        6.1152901954       -1.0921207321
 C        -8.8464926219        2.5527952067       -2.2940214600
 C       -10.2520958985        0.5871721100       -1.6084354229
 C       -14.1786892210       -0.7335329121        0.9303917252
 C       -13.5707167848       -1.8176812189        3.1788450958
 C        -7.5580726401       -3.4150607565        4.1125634686
 C        -6.6834417782       -3.5799944514        1.7672037044
 H        -7.6965773449       -7.2138208637        4.2602972401
 H        -9.0683252610       -6.5924786513        3.4204902999
 H        -8.4039398541       -5.7660530445        4.8567204277
 H        -9.5527968314       -2.0924334340        1.8723161582
 H       -10.3609851948       -2.7912448714        3.2917353525
 H       -11.9680702614       -3.8963462512        2.0758997431
 H       -11.1751420757       -3.9248188220        0.5385618229
 H       -12.3740567782        2.1285600204        1.5713592878
 H       -12.1104276555        0.9896862345        0.2419149103
 H        -9.5126256264        0.9321384081        0.9818076817
 H        -9.9514763540        2.1703751698        2.0487578081
 H       -12.2003733032        1.7637092335       -3.8995486854
 H       -10.7774626822        2.7357448545       -4.1413468457
 H       -13.4019910612        3.9098084199       -3.4104416928
 H       -12.4024409258        4.3129246667       -4.8933199181
 H       -12.2205795324        9.3493764608       -3.5493503593
 H       -11.0189200464        8.2958290698       -4.5489290787
 H       -10.0091330883       10.4902297646       -4.2207375885
 H        -9.1295492151        9.1199586128       -3.2349569360
 H        -9.7930996430        9.4044465328        0.8451259791
 H        -9.3136775563       10.8827696684        1.7056430817
 H        -8.1228489867        9.2797706697        2.9961946237
 H        -6.8599340452        9.7351421172        1.8999302871
 H        -4.9958214716        8.1984620459       -1.7883630500
 H        -5.1142756284        6.5011167842       -2.1963372363
 H        -4.1015993083        7.1700307590       -0.7535478388
 H        -4.9046312837        8.4581195297        2.5337593351
 H        -5.0405788511        9.0776842151        0.8533671040
 H        -4.1375434164        7.6646046695        1.2531852949
 H        -5.6424655591        5.7601684352        2.5257691303
 H        -5.7732204815        5.1495566816        0.9854332448
 H        -7.3112443323        5.5556304625        1.6671039426
 H        -7.5802571870       12.8137531718       -2.1512443257
 H        -8.5025367930       12.1525730860       -3.2705520313
 H        -7.3504997125       11.0063129335       -2.3831096401
 H        -8.8317175725       13.1373950226        0.1027444427
 H       -10.5320223943       12.5852542459        0.2530506169
 H        -9.8467658107       13.4039063806       -1.1428509088
 H       -14.4223907661        6.2411859453       -3.5997926995
 H       -13.2991761858        7.3323123163       -4.3994977713
 H       -14.2649858063        7.7217606007       -2.9275117670
 H       -12.9526298396        4.9819595317       -1.0551010057
 H       -13.8208967318        6.7001080827       -0.8048464858
 H       -12.1421153757        6.4599082820       -0.2913609797
 H        -8.8881466132        2.2421071283       -3.3031328938
 H        -7.9602298444        2.1730831859       -1.6411233096
 H        -8.8092512082        3.6322983817       -2.2307682901
 H       -11.1730638943        0.1214811110       -1.2174378356
 H        -9.4211730802       -0.0823584360       -1.2337159812
 H       -10.2012108481        0.4777679992       -2.6575828753
 H       -15.0859656056       -1.1385137482        1.3042902969
 H       -13.9457673852       -0.9613805046       -0.1359680922
 H       -14.1750309362        0.3766844449        0.9614970587
 H       -14.0739964935       -2.7199742458        2.8800731487
 H       -14.1701650842       -1.2033422231        3.8611127527
 H       -12.7071953114       -2.0988344232        3.7273023053
 H        -8.2646754157       -3.7591933150        4.8499951335
 H        -7.6285470592       -2.3431632737        3.9799128229
 H        -6.5942205965       -3.3512807108        4.5534459081
 H        -5.7134656563       -3.3565943749        2.2750912625
 H        -7.0402888070       -2.7426169064        1.1616181071
 H        -6.4074810746       -4.3506309465        1.0687540064
 Na       -9.3715027320        5.8322528338       -0.7206908180
