117

 C        -3.5866530176        8.4332998397       -6.5405474242
 C        -4.0611854588        7.0303655507       -6.8560356186
 O        -4.3418771491        6.3317555401       -5.8567667022
 C        -3.9687088739        6.4978586824       -8.3500307360
 C        -5.0013901299        5.2140211700       -8.5122414785
 O        -4.5603700983        4.3044739507       -9.2472144581
 C        -6.4734770129        5.4193770081       -8.0918439653
 C        -7.1718334317        4.0116217111       -7.9149343187
 C        -7.1849907970        3.3889429875       -6.4479939512
 O        -7.0306555216        4.1473999902       -5.5399137178
 C        -7.4352898336        1.8141759118       -6.2138867982
 C        -7.9529424425        1.4864377001       -4.7580527656
 O        -7.6262451033        0.4208447984       -4.2184266955
 C        -8.9515831123        2.3910994361       -4.0704229976
 C        -9.8140064343        1.6549767775       -2.9975014156
 C       -10.2178429399        2.7272426764       -1.9691183975
 O        -9.5668380241        3.7054585039       -1.8943178550
 C       -11.4575947871        2.3755443289       -1.1391909122
 C       -11.5783472012        2.9247473723        0.3782265331
 O       -12.3099811031        2.2237651994        1.0869156609
 C       -10.7842123596        4.1654304420        0.8938250658
 C        -9.3562570771        3.8021420240        0.9173044642
 C        -8.6362184550        4.6698841114        1.9865536945
 O        -9.1006775182        5.7873885766        2.0367522925
 C        -7.6853278553        4.0594424522        3.0744544481
 C        -8.6470195497        3.2623794613        4.1173026843
 O        -9.0803302236        2.1796936631        3.8896232830
 C        -8.9353887453        4.0689218125        5.5678819020
 C        -9.7802928151        3.1811259819        6.5454760717
 C       -11.0563824424        2.6705017936        5.9251217747
 O       -11.3586190644        3.0186193898        4.8303125251
 C       -11.9890547817        1.5976970114        6.8280798245
 C       -13.4818239858        1.8149524574        6.2693256544
 O       -13.6371450565        1.3573645804        5.1406380383
 C       -14.6138172043        2.4339496169        7.1229021411
 C       -15.6645283758        2.9892359037        6.2875876657
 C       -15.0099579134        4.1549738358        5.4011858354
 O       -13.8176834790        4.2984677744        5.4766768432
 C       -15.8978388397        5.1472615542        4.4927979907
 C       -15.3572229988        5.2607078500        2.9935644964
 O       -14.5383523315        4.4217661138        2.5987176489
 C       -16.0025042000        6.2159815732        1.9885376333
 C       -17.3778034147        4.6435641479        4.4246613493
 C       -15.8492536007        6.5771116827        5.1034407898
 C       -11.5778562111        0.2733957925        6.2088972268
 C       -11.8697732746        1.7865097659        8.3439656374
 C        -6.8739383164        2.8163791200        2.4382631438
 C        -6.6957514562        5.0103023507        3.8227397280
 C       -12.5155452378        3.0461536848       -1.9708805867
 C       -11.7961487708        0.7984090227       -1.1132256835
 C        -8.8645633609        1.2212107142       -7.0720457527
 C        -6.1903310430        1.0045698110       -6.5154971459
 C        -4.2522193580        7.6194143279       -9.4211227069
 C        -2.4853832783        6.0226507600       -8.5628980610
 H        -4.1968315491        8.8744058071       -5.6922519103
 H        -3.4681113296        9.2686771601       -7.2977088649
 H        -2.5715350728        8.3169928314       -6.2566711813
 H        -6.9330424405        6.0148026319       -8.8551745094
 H        -6.3822252702        6.1304880473       -7.1812223435
 H        -6.4973397734        3.3686753482       -8.3904593797
 H        -8.2025980681        3.9415298064       -8.3666316699
 H        -9.4558848047        2.8859337701       -4.8707282655
 H        -8.3211966725        3.1159136501       -3.4914474115
 H        -9.1240396477        0.9879224757       -2.5529453073
 H       -10.6363522950        0.8292446204       -3.0651857506
 H       -11.1254837101        4.5964876812        1.8281458010
 H       -10.9259632549        5.0676206309        0.1866488125
 H        -8.7454941136        4.0097154988        0.0128196811
 H        -9.2214409433        2.7596650691        0.9813588597
 H        -9.4459549323        4.9864224099        5.3222380034
 H        -7.9177180801        4.1367183601        6.0942927925
 H        -9.9855443387        3.7319566507        7.4519255717
 H        -9.2847569211        2.3638019220        6.9374745426
 H       -14.1733569477        3.2390591190        7.7206339634
 H       -14.9891646159        1.7995514647        7.9353357403
 H       -16.5084488399        3.3979883382        6.7980185721
 H       -16.0791048115        2.2630826093        5.6194989268
 H       -16.0871035037        5.6451863765        1.0832602791
 H       -15.2011024655        6.9317993519        1.8274985363
 H       -16.9368756010        6.5917353183        2.4298100478
 H       -17.3010534221        3.6215459741        4.0733341044
 H       -17.9970672677        5.2142981711        3.8415815822
 H       -17.9670147449        4.6201854987        5.4029024914
 H       -16.7379055583        6.9898478653        5.7352909922
 H       -15.6914014082        7.4180579628        4.3058456180
 H       -15.0510154052        6.6359768743        5.8174985102
 H       -12.3893567552       -0.4729963730        6.1759433836
 H       -10.7330329724       -0.1600836120        6.8111258134
 H       -11.3185786316        0.5371269967        5.1879671092
 H       -11.0574139061        1.0736374274        8.6087045503
 H       -12.7162401091        1.4149349039        9.0139995361
 H       -11.5123578283        2.7639806155        8.6693841576
 H        -6.6119399221        2.2451170293        3.3277073725
 H        -5.9661358503        3.2085517315        1.9215827003
 H        -7.4334940059        2.1421994390        1.8008418303
 H        -7.2808680907        5.7924255814        4.1333720252
 H        -5.8381470535        5.2353504452        3.1845020627
 H        -6.2770445613        4.5260021269        4.7305615058
 H       -12.3758404882        2.8359933207       -3.0384580208
 H       -12.4395453190        4.1933799830       -1.7713121710
 H       -13.5436580066        2.8837358100       -1.6213589922
 H       -12.1803582131        0.3761857742       -2.1278716310
 H       -12.5374661536        0.5741000145       -0.3345035106
 H       -10.9786432447        0.1689811440       -0.7215645415
 H        -8.6729905617        1.1053649658       -8.1040719366
 H        -9.5195981573        1.9954158393       -6.9728545603
 H        -9.2292469684        0.2778657952       -6.5500969996
 H        -5.4949632013        1.2454191960       -5.8272310023
 H        -5.7210295003        1.2726264424       -7.4099633941
 H        -6.3911836969        0.0500404157       -6.2492812826
 H        -3.7810684307        8.5670231983       -9.1474511497
 H        -5.3483294228        7.8027111438       -9.4016956231
 H        -4.0265988575        7.4042506413      -10.5071182369
 H        -1.8663657065        6.1980879365       -7.7636518625
 H        -1.9662930226        6.4493016137       -9.3337664586
 H        -2.4903324031        4.9519191969       -8.5207819349
 Na      -13.2660778289        2.7639866553        3.4035479574
