117

 C        -3.4632695772        8.2867100714       -6.2022358435
 C        -4.1428318385        6.8669819136       -6.4264491737
 O        -4.5852911283        6.2004210189       -5.4703604050
 C        -3.9569246452        6.2488980967       -7.9095698176
 C        -5.0114628882        4.9554732041       -8.2275028127
 O        -4.6175608020        4.2341116756       -9.1221858165
 C        -6.2655458179        4.8727464187       -7.4664854721
 C        -7.1213653232        3.6759703660       -7.8347645511
 C        -7.3922547702        2.9180834519       -6.4722808340
 O        -7.3771215311        3.6351565890       -5.4399559314
 C        -7.4724249566        1.3250148844       -6.4185509133
 C        -7.8668896163        0.7790360275       -4.9670506185
 O        -7.3307056011       -0.2294637703       -4.6453831153
 C        -8.8854341836        1.5575060505       -4.0954631358
 C        -9.5538749445        0.9675629074       -2.8170848385
 C       -10.1113480929        2.3038846478       -2.1554777045
 O        -9.4459989512        3.2673748073       -2.0183704274
 C       -11.6530657293        2.2975087057       -1.3844241980
 C       -11.8755455533        3.1670379401       -0.0732929545
 O       -12.8191293339        2.7302806305        0.5956096679
 C       -10.9890609337        4.2112917692        0.5490285288
 C        -9.8528634621        3.6206997699        1.3400121045
 C        -8.9200548941        4.6622894185        2.0621384157
 O        -9.0694363839        5.8241551161        1.7173313109
 C        -7.8576017099        4.1312651610        3.0129816380
 C        -8.6888818811        3.5664002936        4.2010865358
 O        -8.9818172697        2.4153336513        4.1382467525
 C        -9.2110325726        4.5072262792        5.3786688686
 C        -9.9639018473        3.7313349922        6.3521609730
 C       -11.2371507398        3.0701426274        5.6588620043
 O       -11.7649918343        3.5036336649        4.6352672395
 C       -11.9940278371        1.9439185874        6.4412920144
 C       -13.4630915331        1.9294340154        6.1011417483
 O       -13.7682926948        1.4016523365        5.0247654267
 C       -14.5494658933        2.4682787293        7.1097161913
 C       -15.6325154984        3.3630529643        6.4791507156
 C       -14.8535411340        4.5134044105        5.6525523080
 O       -13.6337643569        4.6049667342        5.7073297174
 C       -15.6190938797        5.6643101019        4.9105551376
 C       -15.1387214779        5.5667188004        3.2921912820
 O       -14.2087904278        4.9088421537        2.8755913325
 C       -15.9277671238        6.3287601613        2.3099686622
 C       -17.1094161252        5.2565784497        4.9721365316
 C       -15.2471959039        7.2028708388        5.2298213544
 C       -11.2775385681        0.5954025139        5.8528437837
 C       -11.6444168853        2.0840268510        7.9221774177
 C        -7.0447956245        3.0722266613        2.3486079908
 C        -6.8859979013        5.2414001359        3.5399200285
 C       -12.7220866771        2.8335266040       -2.3104794311
 C       -12.0141724560        0.8245021902       -0.9932107730
 C        -8.5573408785        0.8975075794       -7.4153378783
 C        -6.0827365055        0.7102323981       -6.8016866102
 C        -4.1763742914        7.1894495926       -9.0624829786
 C        -2.4548004937        5.7653332963       -7.7559863551
 H        -3.2766202228        8.5528110953       -5.2021654893
 H        -3.9947363841        9.1364405733       -6.7838547336
 H        -2.4736184139        8.3885640027       -6.8249469566
 H        -6.6879424002        5.8382270164       -7.6453282300
 H        -5.9465574333        5.0773480039       -6.3800886575
 H        -6.6893800688        3.0300842437       -8.5682537279
 H        -8.1427038747        4.0215163654       -8.2786120477
 H        -9.7728108835        1.7402014101       -4.6634529888
 H        -8.3502393238        2.5463990756       -4.0571035940
 H        -9.0578859397        0.4426403189       -1.9755417502
 H       -10.3808722046        0.2522335260       -3.0267455584
 H       -11.6133948515        4.8848569793        1.1411982165
 H       -10.4722020126        4.8688482258       -0.2820160081
 H        -9.2608969079        2.9616184107        0.7246839262
 H       -10.1913222672        2.9190938337        2.0220442124
 H        -9.9408107654        5.1507938035        4.8830379471
 H        -8.3108099987        4.9252157894        5.8772425471
 H       -10.3609685827        4.3471848818        7.0787341214
 H        -9.4180790305        3.0120275988        6.8311008765
 H       -14.0357920219        3.1749590668        7.7664877424
 H       -15.0046605831        1.6301707273        7.7720623884
 H       -16.1610506469        3.7407587070        7.2928986455
 H       -16.3056907229        2.8669529167        5.7945303635
 H       -16.5807737707        5.6169672175        1.8082264189
 H       -15.2073040997        6.5670310446        1.5830142091
 H       -16.4532433927        7.0765488924        2.8127245323
 H       -17.3073745343        4.2352768804        4.5602446316
 H       -17.6842039543        5.8592999058        4.3608669175
 H       -17.5084273676        5.2986843341        6.0298627970
 H       -14.5589538257        7.4385534788        6.0994998226
 H       -16.2055872553        7.7687415737        5.1921552815
 H       -14.7125620091        7.7323264796        4.4819130260
 H       -11.1875699252       -0.0559703779        6.7511559251
 H       -10.2897130100        0.7157891819        5.4385121751
 H       -12.0890806602        0.0603139772        5.3352265769
 H       -10.5601253898        2.4069367927        8.0531898286
 H       -12.0923094609        1.1777444549        8.3866893549
 H       -12.2517603726        2.8369924494        8.4296580886
 H        -6.0047396248        3.1866158366        2.6611604256
 H        -6.9909964890        3.1743470792        1.2827388353
 H        -7.5042536137        2.1500281145        2.6100066903
 H        -7.4137442387        5.9244133781        4.1872484140
 H        -6.4722542734        5.7731005381        2.6349970877
 H        -6.0321233088        4.6735100521        4.0510901397
 H       -12.5935045642        2.2126110524       -3.1159118672
 H       -12.7134904842        3.8784417791       -2.7116780465
 H       -13.7378290469        2.5428106277       -1.8173507805
 H       -11.9142358906        0.2030902354       -1.9410598105
 H       -13.0740718397        0.7336999214       -0.6824089843
 H       -11.4119239963        0.4569655988       -0.1535961269
 H        -8.2121827614        1.3610996579       -8.3912872105
 H        -9.4858784698        1.4400305567       -7.1125474418
 H        -8.6727123294       -0.1493126766       -7.4028219677
 H        -5.2332663840        1.1026971184       -6.2253400342
 H        -5.8209226839        0.8741645920       -7.8391226779
 H        -6.1780046995       -0.3909943625       -6.6354786847
 H        -3.3356681497        7.8384211293       -9.1826262208
 H        -5.1127114196        7.7474840140       -8.9493968115
 H        -4.2524335606        6.7616774868      -10.0669336896
 H        -2.3993549255        4.7655610959       -7.2895735842
 H        -1.7428874457        6.4191531747       -7.2270856785
 H        -2.0116076758        5.4642436087       -8.7700021483
 Na      -13.0242227931        2.8229856712        2.8784125363
