117

 C        -3.5610666961        8.0840747556       -5.7914583620
 C        -4.1369491116        6.6663717734       -6.2127173916
 O        -4.7156172793        6.0145513495       -5.3927606786
 C        -3.8063849565        5.9788705057       -7.5731274649
 C        -4.8971899457        4.7693013785       -7.8622880377
 O        -4.4673154331        3.8101915766       -8.3647951833
 C        -6.3410455038        4.7115478364       -7.2868723456
 C        -6.8732657270        3.2975126455       -7.5806402892
 C        -7.2712776891        2.5525650519       -6.3243863089
 O        -7.3564079249        3.2186991137       -5.2666096272
 C        -7.6160963100        1.0502590518       -6.2717096200
 C        -8.2512903952        0.5780798145       -5.0196421780
 O        -7.7781406353       -0.3444798314       -4.4457141489
 C        -9.3909962991        1.1897001263       -4.3280196122
 C        -9.6826542861        0.5035282914       -2.9691915991
 C       -10.1188999670        1.7075343514       -1.9956768644
 O        -9.3740257461        2.6555985469       -1.8786745357
 C       -11.6645224561        1.8633695225       -1.5769644740
 C       -12.0313100748        2.7893975924       -0.3042325315
 O       -12.8789300880        2.5620025975        0.5577453958
 C       -10.9463196328        3.9675373540        0.1358886819
 C       -10.0240391097        3.4288622621        1.1563496323
 C        -9.2168636816        4.6015886186        1.8253453147
 O        -9.5368296395        5.7396734628        1.5511854303
 C        -7.8983319863        4.3584824400        2.8704977647
 C        -8.3630762168        3.9438296482        4.3067943838
 O        -8.2507145260        2.8263945653        4.7474921149
 C        -9.1358438480        5.0093264890        5.1678056575
 C       -10.1293630043        4.4778156839        6.1745669917
 C       -11.0794707799        3.3759915918        5.3974803438
 O       -11.1361598059        3.3820632831        4.1428146888
 C       -11.7958915816        2.1431978621        6.0047707803
 C       -13.3916282806        2.4249349072        5.6534421294
 O       -13.7533140134        2.2419259014        4.5106137015
 C       -14.5182403802        2.7245786015        6.6826557504
 C       -15.5972735785        3.7503754146        6.1298762473
 C       -14.7801243309        5.0484681805        5.9629720744
 O       -13.6132493743        5.0171239965        6.4014324789
 C       -15.4609934881        6.1960113924        5.1829942381
 C       -15.2022657123        5.7874318459        3.5917905603
 O       -14.5171680383        4.8919124430        3.3093113722
 C       -15.8685721792        6.7173402286        2.4590528336
 C       -17.0629323712        6.0653937265        5.3440729254
 C       -14.8967483693        7.6479126117        5.6454931903
 C       -11.3685757516        0.8653162347        5.2530215635
 C       -11.7020910452        1.9030975024        7.6339188444
 C        -7.0030200543        3.1021281332        2.3400250124
 C        -7.0561153654        5.6576073775        2.9354038294
 C       -12.5281513372        2.2768428801       -2.9340697429
 C       -12.2572112598        0.3869209752       -1.2625771219
 C        -8.4440886394        0.7750014057       -7.5517562038
 C        -6.3057735491        0.2079083068       -6.5176100427
 C        -3.9565369933        6.9813833163       -8.6274846961
 C        -2.4394099668        5.4098555796       -7.6174103810
 H        -3.2146411060        8.1842953056       -4.7198997192
 H        -4.3591991277        8.7809509542       -6.1173629468
 H        -2.6905329580        8.5730992881       -6.3879414022
 H        -7.0653357411        5.4256122460       -7.6086386101
 H        -6.3737276024        5.0024414313       -6.1790807832
 H        -6.2361040985        2.6477184529       -8.1357856090
 H        -7.9160678243        3.2945779202       -8.1389941759
 H       -10.1859188175        1.1802990471       -5.0230333597
 H        -9.1688048623        2.2795191195       -4.2062186872
 H        -8.6553415097        0.2079998788       -2.5610840245
 H       -10.3471076674       -0.3081554065       -2.8023466138
 H       -11.4197036453        4.9104629143        0.4387868859
 H       -10.3658274274        4.1912471488       -0.8100857953
 H        -9.5884364924        2.5274393403        0.7419345417
 H       -10.5477408853        3.0275502959        1.9783508441
 H        -9.5985750754        5.6517459929        4.3375206971
 H        -8.4514604117        5.6019568375        5.8022978641
 H       -10.5710090315        5.3270372479        6.5209259297
 H        -9.6824217142        3.9514888859        7.0058911188
 H       -13.9960923180        3.1646833930        7.5359265115
 H       -14.9397380697        1.6340734029        6.7697507653
 H       -16.3402841437        3.8130150535        6.8434718060
 H       -15.9288676762        3.2582531000        5.2318020589
 H       -16.9578894968        6.8470165055        2.6916516181
 H       -15.6855061088        6.3821062243        1.4397829237
 H       -15.4242545921        7.6439251710        2.7170335660
 H       -17.4357988117        5.2702525333        4.6361777450
 H       -17.5698151959        6.9608398989        4.9424355828
 H       -17.2992714802        5.8023161781        6.3192885899
 H       -13.9383858884        7.5337754362        6.0885119080
 H       -15.5311171615        8.1215696367        6.3118109886
 H       -14.8927479230        8.3820584582        4.7722663605
 H       -10.2817007623        0.8037123972        5.2903701741
 H       -11.6945518763        0.9046171189        4.2217025347
 H       -11.7950644806       -0.0444730181        5.7651099216
 H       -10.5698350638        2.0933490889        7.8228925782
 H       -12.0619296773        0.9400904838        8.0858834019
 H       -12.2665652699        2.7581224707        8.0185299592
 H        -6.2626476030        2.8820847226        3.1599901162
 H        -6.3492259571        3.3724675707        1.5397985619
 H        -7.5610983382        2.2123856218        2.0719532206
 H        -7.8160943193        6.4718772099        3.0329001096
 H        -6.6807662019        5.8323118251        1.9391150666
 H        -6.3662501920        5.6485502559        3.7825944539
 H       -12.3845832763        1.5103017370       -3.6906546427
 H       -12.2381870683        3.1999117633       -3.3240936222
 H       -13.5889968783        2.2231945837       -2.5377696282
 H       -12.7668975177       -0.1740891834       -1.9933475718
 H       -13.0023208393        0.6712419804       -0.5325427909
 H       -11.4804131138       -0.1714826074       -0.8182594417
 H        -7.8040505138        1.2138035466       -8.3935767541
 H        -9.4311798462        1.3339849439       -7.2942139060
 H        -8.5137340173       -0.2682515528       -7.6981141014
 H        -5.5781594669        0.6394448823       -5.7298246727
 H        -6.0611912348       -0.0248662288       -7.5592197939
 H        -6.4640589011       -0.8987433377       -6.2871205844
 H        -4.9454734248        7.4187073336       -8.7665751623
 H        -3.6980563712        6.6278115011       -9.6369992049
 H        -3.2961677691        7.8375425443       -8.4824716634
 H        -2.4593941262        4.5998795258       -6.8106949369
 H        -1.5853268017        6.1349419926       -7.3084634233
 H        -2.0628270928        5.1100134617       -8.6140463117
 Na      -13.0591205120        3.2719265969        2.6724783020
