117

 C        -3.5682041108        7.7753665819       -5.7726001213
 C        -4.2029896997        6.4521750687       -5.9710074978
 O        -4.7914893028        5.8847282666       -5.0402346077
 C        -3.9785800374        5.8256646981       -7.4248058526
 C        -4.7105772912        4.5736515220       -7.8005885992
 O        -4.1189065686        3.5127101131       -8.1222080993
 C        -6.0899836420        4.5882269577       -7.2803777546
 C        -6.9170450849        3.2923439979       -7.4601909647
 C        -7.2768480579        2.3920792606       -6.2002007077
 O        -7.3055472430        2.8921803640       -5.1288043689
 C        -7.5758748244        0.8783641798       -6.3729823188
 C        -8.2750603707        0.3505701644       -5.0633294420
 O        -7.7742312989       -0.4635846042       -4.3007694198
 C        -9.6096612789        1.0844570152       -4.6023238422
 C        -9.9148016630        0.5350418275       -3.2091884146
 C       -10.2217446359        1.5546842020       -2.0530736506
 O        -9.4973951292        2.2164239677       -1.3667065846
 C       -11.7153215358        1.6799332075       -1.5422505918
 C       -11.8322515995        2.5494367017       -0.2367981867
 O       -12.8285794828        2.2521953730        0.4290138262
 C       -10.9290392907        3.6985066114        0.1371589835
 C        -9.6841199860        3.2901522192        1.0657600295
 C        -9.2283648860        4.5487866350        1.8145342651
 O        -9.7370526420        5.6612457369        1.7507458206
 C        -7.9738011267        4.4496080994        2.7138650386
 C        -8.4538188884        4.1423084448        4.1793111750
 O        -8.0048466817        3.2089808631        4.7804154103
 C        -9.4121609987        5.1953059025        4.9284967803
 C       -10.2445971506        4.3417538193        5.9344765379
 C       -11.1343872461        3.5119833859        5.1018415706
 O       -11.2262140283        3.6172505075        3.9145220885
 C       -11.8571730530        2.2653588146        5.8258499591
 C       -13.3786901355        2.4122872700        5.4977716524
 O       -13.8823295111        2.3813809441        4.3665643136
 C       -14.5386803921        2.5799390345        6.6041076507
 C       -15.3852378707        3.8414006909        6.2100308422
 C       -14.7364122289        5.2553156288        6.1825483303
 O       -13.6573165224        5.5798645158        6.5779562461
 C       -15.4770572191        6.3419412093        5.2704200223
 C       -15.2717703676        6.0002246600        3.6671054873
 O       -14.5923158428        4.9653824156        3.3706634809
 C       -15.7565450350        7.1091629031        2.6901682135
 C       -17.0331707826        6.4616915812        5.6432425733
 C       -14.7707711760        7.7812619191        5.5434861562
 C       -11.4588482438        0.8920911346        5.0369867984
 C       -11.4143802890        2.2386745235        7.3523976005
 C        -7.0730058343        3.2582827524        2.2826577939
 C        -7.1079987354        5.7276347462        2.7073906682
 C       -12.6200114941        2.3807419975       -2.6842831783
 C       -12.3048305946        0.1956856314       -1.2377167748
 C        -8.4617507961        0.7684013543       -7.6117361517
 C        -6.2788450435        0.1473113933       -6.6415912622
 C        -4.2027070830        6.7608596215       -8.6150513571
 C        -2.3734489301        5.4990599410       -7.2993765203
 H        -3.4864175492        7.9792729830       -4.8127261987
 H        -3.8686185818        8.6121661929       -6.3739256698
 H        -2.5291962844        7.6178794940       -5.9861583840
 H        -6.7038129493        5.3598896227       -7.8504695122
 H        -6.2531888902        4.9905922922       -6.3158911609
 H        -6.4373010624        2.5696142743       -8.1774767428
 H        -7.8585791259        3.4887174800       -7.8288215647
 H       -10.5546195523        1.0659263958       -5.2444118356
 H        -9.3082540449        2.1048743149       -4.6529237334
 H        -9.1197530455        0.0498502103       -2.6976431007
 H       -10.9069286865       -0.0883247731       -3.2799929296
 H       -11.5184890623        4.3047079057        0.8439082831
 H       -10.7942404807        4.2956869088       -0.7452667718
 H        -8.8494149828        3.0138745767        0.3876845262
 H        -9.8658923517        2.3731856450        1.6936756635
 H        -9.8883353520        5.7094783953        4.1585699035
 H        -8.8290604708        5.9421809049        5.5332872857
 H       -10.8833097522        4.9707040398        6.7027002518
 H        -9.5509631421        3.6524783135        6.4416799873
 H       -14.1856302055        2.7419423047        7.6068007689
 H       -15.0895762092        1.7450600336        6.4280704948
 H       -16.3416704062        3.6410385408        6.8253260907
 H       -15.5534861476        3.6700572421        5.1434194280
 H       -16.6942682148        7.4067965335        3.0389205969
 H       -15.7995838825        6.6600360535        1.7140988194
 H       -14.9912129824        7.9149679002        2.6966239503
 H       -17.5002025394        5.5236836186        5.4130558217
 H       -17.5067058525        7.2247330699        5.0832486594
 H       -17.1311129423        6.6327978269        6.7979977320
 H       -13.7188540513        7.7494852689        5.0715001516
 H       -14.4341130471        7.9651145398        6.6703082398
 H       -15.3593760126        8.6082092253        5.2299387041
 H       -10.4198349675        0.9006056364        4.6319802280
 H       -12.2133542351        0.9581705509        4.1833788147
 H       -11.6611336225       -0.0667983671        5.5038610225
 H       -10.3800849314        2.3548085113        7.5435761548
 H       -11.6639743346        1.2194687991        7.7286171682
 H       -12.1260230911        2.9079527086        7.8166685548
 H        -6.0678594622        3.2090536972        2.5979444522
 H        -7.0999093155        3.3230811850        1.1626943573
 H        -7.5220447826        2.2822443046        2.5121497961
 H        -7.6297772753        6.4887601845        3.2274288960
 H        -7.0050815136        6.0616254772        1.6529937058
 H        -6.1626071671        5.4823751533        3.2412596718
 H       -12.6319881057        1.9627081989       -3.6821448199
 H       -12.1958044046        3.4691214768       -2.6713087163
 H       -13.6276791633        2.3617313046       -2.2800717253
 H       -12.2495914841       -0.4320945046       -2.1899333793
 H       -13.3609270903        0.2981490669       -0.9791936951
 H       -11.6225264880       -0.2946704886       -0.5057691551
 H        -7.7841647543        0.7787092000       -8.3996618247
 H        -9.0686298301        1.5772135958       -7.5945859499
 H        -8.9276830581       -0.2283715758       -7.5563988318
 H        -5.8110859260       -0.0171630577       -5.7215676272
 H        -5.7715470699        0.7036520860       -7.3322951158
 H        -6.2796475333       -0.7286564310       -7.1397500571
 H        -5.0394836098        6.4109224717       -9.2134051577
 H        -3.4365956110        6.9144782741       -9.3535355539
 H        -4.4797927069        7.7823207113       -8.3858309673
 H        -2.0974426212        5.3853997941       -6.2962770507
 H        -1.7460249691        6.1568784133       -7.8156193080
 H        -2.1368741161        4.5982577540       -7.8894127166
 Na      -12.8220190358        3.6161962572        2.3631697589
