117

 C        -3.5125303688        7.7473802875       -5.4584119368
 C        -4.1762285589        6.3159486710       -5.7241565515
 O        -4.9740056611        5.8502377654       -4.8927518896
 C        -3.7350687302        5.5144510762       -7.1431997728
 C        -4.5849998376        4.2237604815       -7.2851149392
 O        -4.0073897716        3.1077445240       -7.4190401239
 C        -6.0139390269        4.3162537977       -7.0246892880
 C        -6.8177160115        3.2021968075       -7.5739565677
 C        -7.1429230896        2.3433734121       -6.2535077672
 O        -6.9825317453        2.7913430196       -5.1852100939
 C        -7.6796677650        0.7266074464       -6.4301437986
 C        -8.2255628469        0.0209312681       -5.0130320960
 O        -7.7202340250       -0.9192213282       -4.4045249005
 C        -9.3574697097        0.8443195432       -4.3975678338
 C       -10.5172257437        0.2713402624       -3.5612834655
 C       -10.4190428812        0.9469066170       -2.1071486489
 O        -9.3220053736        1.3571921961       -1.7617979947
 C       -11.7545115034        1.3265213876       -1.4696964936
 C       -11.6898284073        2.2834984802       -0.1264100019
 O       -12.4432141206        2.0446477098        0.8570635831
 C       -10.8298277508        3.5815750660       -0.0450854662
 C        -9.6849325016        3.2554567849        0.8736974044
 C        -9.3545978991        4.5338695451        1.7800586685
 O       -10.1872180247        5.4168755877        1.9388258006
 C        -7.9515167513        4.5665142001        2.5493270236
 C        -8.3007744851        4.5476186235        4.0376629295
 O        -7.7588341566        3.6327561948        4.6137305228
 C        -9.2622776480        5.5305392374        4.8317958176
 C       -10.3236029219        4.7407221976        5.6567445302
 C       -11.1877720182        3.7016946039        4.7644342612
 O       -11.3678135535        3.7701820928        3.5866595430
 C       -11.9113601791        2.3758327430        5.4812958767
 C       -13.3595456931        2.7136225120        5.2015511387
 O       -13.9975227193        2.5672271533        4.1896412980
 C       -14.2378830346        3.0952931392        6.4665067130
 C       -15.3210499356        4.1879327033        6.1747271066
 C       -14.6632298980        5.4909947598        6.2229807699
 O       -13.7031933624        5.7337702899        6.9148292478
 C       -15.2771993486        6.7533055662        5.4147635255
 C       -15.1581696703        6.3487749988        3.9164333325
 O       -14.6952333435        5.2933681682        3.3794140843
 C       -15.6556453868        7.3220452990        2.9034232392
 C       -16.7791539561        6.7791118138        5.7677423030
 C       -14.4405671196        8.1178430443        5.7198618636
 C       -11.4025340453        1.1902737670        4.7157984034
 C       -11.6327511137        2.1519118468        6.9231485997
 C        -6.9173545700        3.5170889899        2.1402112873
 C        -7.3668933643        5.9760452215        2.2269958961
 C       -12.6011603411        2.4702389779       -2.3976562657
 C       -12.6411423436        0.1649914893       -1.0358828490
 C        -8.7260768259        0.3688534498       -7.5927862018
 C        -6.3907343711       -0.0330421561       -6.6885290449
 C        -4.2946138954        6.5003414427       -8.2727160176
 C        -2.2753066067        5.3188352529       -7.3840209517
 H        -3.9972131204        8.3979784013       -4.8110040162
 H        -3.4600875897        8.3261068573       -6.4940268345
 H        -2.4812073504        7.7475218749       -5.0115796834
 H        -6.6251622656        5.1938741074       -7.2832926166
 H        -6.0550080421        4.3280186747       -5.9135502781
 H        -6.1616971971        2.6095001098       -8.2374614096
 H        -7.8034964557        3.4132121714       -8.0258694229
 H        -9.7612774891        1.3989016659       -5.2877114226
 H        -8.8958859495        1.6533178671       -3.8533187266
 H       -10.4488111676       -0.8319487710       -3.4538824214
 H       -11.4205739419        0.8354119583       -3.8864966082
 H       -11.3819731688        4.5480072970        0.2844588718
 H       -10.4331356704        3.7643196660       -1.0143895399
 H        -8.9424165545        2.7970981396        0.2934922383
 H       -10.0357007041        2.5866869640        1.6464987591
 H        -9.9194341418        6.0429065317        4.0756821509
 H        -8.5942986981        6.3113512241        5.2245543853
 H       -11.0256991518        5.4396793121        6.0336403318
 H        -9.9450179631        4.0905197818        6.3641547216
 H       -13.5341178866        3.4735248280        7.3127317955
 H       -14.7391347176        2.1299206081        6.7153599253
 H       -16.0069747626        4.0503099883        6.9726743999
 H       -15.7907175887        3.8702830292        5.3049273315
 H       -16.2727777054        8.0217804954        3.4401015797
 H       -16.1802038523        6.7834367018        2.1198527554
 H       -14.7640443405        7.8065821558        2.3831431137
 H       -17.1051788948        5.7917217299        5.7770924540
 H       -17.3189747067        7.5673488854        5.2205303726
 H       -16.8266731500        7.2274239420        6.8184593910
 H       -13.5693973363        8.3362931311        5.0902272810
 H       -13.9858186603        7.9397973799        6.7553301709
 H       -15.1134297622        8.9007421216        5.6752270219
 H       -10.4356627124        0.8848125968        5.1602400107
 H       -11.1766645059        1.3268036203        3.6219333275
 H       -12.0656052145        0.3632558504        4.6987518934
 H       -10.7027660410        1.6185299633        7.0096366290
 H       -12.2443944921        1.2426089509        7.2445456076
 H       -11.6195477766        3.0153559495        7.6678001953
 H        -6.2459326133        3.3624556639        2.9339764259
 H        -6.4642642165        3.6174380144        1.1597053710
 H        -7.3705834301        2.5210315405        2.1345653690
 H        -8.1216574814        6.7762563593        2.2747315463
 H        -6.8127679429        5.8659201239        1.2965674145
 H        -6.5901828765        6.1729668948        2.9595332225
 H       -12.8201157540        1.8358422170       -3.2861367272
 H       -11.9907562823        3.3850529123       -2.5464523859
 H       -13.5039857713        2.7145691609       -1.9766479397
 H       -12.9037493652       -0.2703962972       -1.9613638060
 H       -13.4842929434        0.6193254384       -0.6094751638
 H       -12.1362687189       -0.5373633972       -0.4060913866
 H        -8.2335949401        0.8959617735       -8.3982234394
 H        -9.6961482242        0.8119700935       -7.3638300969
 H        -8.6376894711       -0.8122860024       -7.6211909926
 H        -6.5825024712       -1.1476971575       -6.5778820546
 H        -5.4182649318        0.3571056217       -6.3136685589
 H        -6.2574770705        0.0892197000       -7.7903493843
 H        -3.9648087247        6.2595029638       -9.3030447052
 H        -3.9394056229        7.5032104526       -8.1487903530
 H        -5.3553676187        6.6731530393       -8.3317975128
 H        -1.8762179360        4.5489296118       -6.6545049363
 H        -1.6834316253        6.2925369246       -7.3938496607
 H        -2.2252338919        4.9918372375       -8.4786604992
 Na      -13.4840036035        3.7932449103        2.2772222958
