117

 C        -3.4539740810        7.5420902336       -5.4321123839
 C        -4.1248028589        6.2605218451       -5.7456740841
 O        -4.9006828668        5.8335401788       -4.8767754937
 C        -3.7714419469        5.6375124535       -7.1296074461
 C        -4.5922793354        4.2086959736       -7.0835232749
 O        -3.9587608181        3.1907746265       -7.1122990549
 C        -6.0837447196        4.2806620240       -6.9480451978
 C        -6.8287009618        2.9618957332       -7.5426195567
 C        -7.1998147500        2.0605650417       -6.2754867726
 O        -7.0811055757        2.5897458091       -5.1514156336
 C        -7.5902781788        0.5576838791       -6.4526130906
 C        -8.2484376924        0.0149259257       -4.9867973350
 O        -7.8784608852       -1.0040761207       -4.5218280921
 C        -9.3659666378        0.9079056046       -4.3472209194
 C       -10.5560567819        0.2279917194       -3.5550849694
 C       -10.5694676505        0.9526997811       -2.1577308124
 O        -9.5509133873        1.1298910635       -1.5996256369
 C       -11.9281332973        1.3737437284       -1.4324108788
 C       -11.6276549793        2.2488193459       -0.1768644353
 O       -12.2384955668        2.0038676693        0.8579638377
 C       -10.7375209730        3.4494498202       -0.1352971397
 C        -9.5690964548        3.2355364702        0.9308894574
 C        -9.3390852388        4.4896321360        1.6935093297
 O       -10.2183153885        5.3320080815        1.8061173162
 C        -7.9486612798        4.7109573832        2.4132506810
 C        -8.2837016091        4.5855326130        4.0975762293
 O        -7.7075404935        3.7301331683        4.7007882430
 C        -9.2788359491        5.5075468639        4.7106147755
 C       -10.3465709468        4.7537609834        5.5579899151
 C       -11.1389818495        3.7445363948        4.7861620246
 O       -11.2798550214        3.9520153108        3.6131137807
 C       -11.8338990596        2.4539982012        5.4082558091
 C       -13.4330287285        2.6148073387        5.2902100893
 O       -13.9896470502        2.5111486557        4.2055782790
 C       -14.4212411429        3.0673766050        6.5669551497
 C       -15.2257822495        4.2936070235        6.0932337068
 C       -14.5230291292        5.6447785149        6.2853567688
 O       -13.5816427413        5.8813171007        7.0070197534
 C       -15.2620962409        6.8276335786        5.4377703478
 C       -15.1708356239        6.5422067119        3.9158446117
 O       -14.6831868398        5.4415494788        3.5838418159
 C       -15.6991320753        7.5534187834        2.8441477903
 C       -16.7503050139        7.0483868338        5.7500083629
 C       -14.4573177190        8.0216155101        5.7520655046
 C       -11.6018593943        1.2675494032        4.3557426814
 C       -11.4610596059        2.2715221971        6.8285842782
 C        -6.9885921725        3.6280692905        2.0736093407
 C        -7.4454956196        6.2039593489        2.0726090830
 C       -12.5182109915        2.2766538944       -2.4807906509
 C       -12.7673501173        0.1003341603       -0.9971991464
 C        -8.6863293478        0.4527415184       -7.5154430733
 C        -6.2854226083       -0.2578776752       -6.7439320296
 C        -4.2096033906        6.5641048731       -8.3022105340
 C        -2.3352165336        5.2284676241       -7.2674391269
 H        -3.8804699375        8.3114765999       -4.8568911918
 H        -3.0415180972        8.0104624884       -6.2417354112
 H        -2.6329393698        7.1664879206       -4.8145135812
 H        -6.5400290807        5.0141851985       -7.6901529429
 H        -6.3486026257        4.6707362338       -5.9890998073
 H        -6.0386637590        2.4814363061       -8.2031765390
 H        -7.7198527526        3.1422763153       -8.0241637955
 H        -9.5374944927        1.8403923916       -4.9957809384
 H        -8.8052853167        1.2897935119       -3.5340564824
 H       -10.0014783600       -0.6724656368       -3.2719687141
 H       -11.6508653817        0.3162650576       -4.0151715307
 H       -11.4048366931        4.2745282936        0.2683302917
 H       -10.3881973439        3.8083314718       -1.1325393984
 H        -8.6204791149        3.0019113684        0.4034601911
 H        -9.8598032831        2.4890217671        1.6371796211
 H        -9.6128603480        6.1932206757        4.0490317418
 H        -8.5902024345        6.1392350218        5.3977375525
 H       -11.0710298753        5.5072170517        5.9679081700
 H        -9.7687049757        4.2164232074        6.2960607926
 H       -13.7208959682        3.4168361600        7.3367633639
 H       -15.0506129908        2.2872707955        6.9168475312
 H       -16.2266575762        4.2020240363        6.5858258018
 H       -15.4131886579        3.9836192221        5.0948809841
 H       -16.1319683430        8.3369512520        3.4002270822
 H       -16.4121360897        7.0740703050        2.1923137662
 H       -14.8758665793        7.8420017988        2.1972426049
 H       -17.3318333425        6.2315612891        5.3378228367
 H       -16.9373632690        8.0221967741        5.4997377859
 H       -16.9072343830        7.1820993788        6.8632812138
 H       -13.4223466535        8.1306158839        5.2346569130
 H       -14.2100249425        8.0651951597        6.8641455509
 H       -15.0784112670        8.8415714828        5.3590694895
 H       -10.4797223790        1.1162558491        4.4327391191
 H       -11.7326184612        1.5507433409        3.2701964213
 H       -12.1302189683        0.3356104427        4.4704936284
 H       -10.3190200361        2.2517659029        6.9708197937
 H       -11.6740035592        1.2108340982        7.1567381648
 H       -11.8115091953        3.0638077135        7.5288205415
 H        -6.1974290800        3.5876752202        2.7571225117
 H        -6.6387904835        3.7173969337        1.0343019397
 H        -7.3573940131        2.6254850301        2.1670519983
 H        -8.2358770359        6.8791517532        2.2292648641
 H        -6.8326554482        6.2812057694        1.1280494858
 H        -6.6638731313        6.3869870868        2.8870981396
 H       -12.8222082093        1.6078573731       -3.2368930788
 H       -11.7715736850        3.0759766967       -2.7440792666
 H       -13.3591227952        2.8390466467       -1.9915031971
 H       -13.0720234927       -0.2534848677       -2.0218032858
 H       -13.5529737625        0.2728327592       -0.3025202262
 H       -12.0459092916       -0.5953554942       -0.6169081005
 H        -8.4443363368        1.2307524958       -8.2466757808
 H        -9.6079853086        0.7118314135       -7.0417759421
 H        -8.6416505211       -0.5534683759       -7.8091776939
 H        -6.5446681632       -1.2468096407       -7.0748704307
 H        -5.7867074533       -0.3054636686       -5.8654736637
 H        -5.6138505820        0.1104588837       -7.4467207366
 H        -3.5600682152        6.3906936294       -9.1356687598
 H        -4.0060321385        7.6160982914       -8.0928118821
 H        -5.2205479274        6.5921007933       -8.7133230938
 H        -2.2866990403        4.2424360812       -6.7399896379
 H        -1.5741622778        5.9420916673       -6.8660433874
 H        -2.0868344864        5.1225105499       -8.4095350608
 Na      -13.5841057429        3.6972076282        2.1832880584
