117

 C        -3.1207117250        7.3850094772       -5.2407337540
 C        -4.0334370117        6.2966674331       -5.6544290696
 O        -4.8510861490        5.8285853650       -4.8503788128
 C        -3.7320461274        5.6277924879       -7.0534370344
 C        -4.6319266821        4.1856436417       -6.9571834936
 O        -4.1601615789        3.0769875021       -6.6103605899
 C        -6.1686926392        4.1721453630       -7.2621362228
 C        -6.6624026285        2.7232038085       -7.3220415007
 C        -7.1389350585        1.9867322891       -6.0125452754
 O        -7.1066008446        2.4125575574       -4.9389347873
 C        -7.6342685630        0.3188350853       -6.2883317990
 C        -8.3653711036       -0.1367526612       -5.0856610219
 O        -8.3687343677       -1.2916103855       -4.6534931051
 C        -9.3278722875        0.8952825169       -4.3037192037
 C       -10.3119522248        0.1417372909       -3.3422584712
 C       -10.5260851523        0.8397261295       -1.9523545080
 O        -9.6295655722        0.7181031800       -1.0968126826
 C       -11.9575871001        1.3053152524       -1.4716833208
 C       -11.6733925945        2.1357671062       -0.2929202174
 O       -12.3149382532        1.9853873682        0.7424025800
 C       -10.5953464455        3.2079090712       -0.3218201107
 C        -9.4956222008        3.1781247245        0.7544376283
 C        -9.3145375484        4.5538213499        1.5369310544
 O       -10.1107176066        5.4561137998        1.3771118167
 C        -8.0168410610        4.8415392169        2.3325566648
 C        -8.2986555498        4.6877530963        3.8699498857
 O        -7.6832536537        3.9284162117        4.6220623558
 C        -9.4486749112        5.6299785306        4.5023040766
 C       -10.3029319264        4.6864203228        5.4071210608
 C       -11.3997357001        3.9315170688        4.6692662662
 O       -11.7197668220        4.2508582221        3.5355902999
 C       -11.8691191801        2.6150973260        5.2318480734
 C       -13.5294431137        2.8080526079        5.3011096862
 O       -14.0808359682        2.6036163834        4.2483601934
 C       -14.2904621405        3.2813678978        6.5682012906
 C       -15.3402389445        4.4301336960        6.2444661588
 C       -14.5756800940        5.7225925181        6.2282416975
 O       -13.5754659517        5.9093707382        6.8953261686
 C       -15.1242198356        7.0293599297        5.4465204780
 C       -14.9719539786        6.7422275229        3.9365589259
 O       -14.5173670573        5.7443199620        3.4134033756
 C       -15.6382178263        7.7919442429        2.9910167955
 C       -16.6112188570        7.2661070392        5.9032445859
 C       -14.3260850614        8.3464346952        5.7636282752
 C       -11.5220102924        1.4409237554        4.2905585747
 C       -11.2281964623        2.1012001463        6.4477399310
 C        -6.7361430698        3.9473370000        2.0369391830
 C        -7.6592703476        6.3146085783        2.1617173510
 C       -12.8704314819        2.1467893605       -2.5591275462
 C       -12.9286699497        0.0734654116       -1.2079027095
 C        -8.6778615651        0.3006019578       -7.6228192057
 C        -6.5081041456       -0.5903768089       -6.7086897432
 C        -4.1528768137        6.4771305068       -8.2347129960
 C        -2.1942155884        5.1895796977       -7.0045835582
 H        -3.8220807125        8.1669365277       -5.0128857657
 H        -2.4775552644        8.0014749076       -6.0119555198
 H        -2.5671067257        7.2332592478       -4.2971123363
 H        -6.5102955092        4.4857229802       -8.1995335346
 H        -6.7938967647        4.6958278410       -6.4910280649
 H        -5.8860142304        2.1417040047       -7.7033866240
 H        -7.6310037793        2.6084437034       -7.9119105002
 H        -9.8186581738        1.5421447078       -4.9869077088
 H        -8.5850877156        1.5358071545       -3.7049698882
 H        -9.6980108618       -0.6579957011       -3.0131195778
 H       -11.1984978800        0.0376948767       -3.8576378122
 H       -11.1405500396        4.1287657789       -0.3989186769
 H       -10.0411740480        3.1494181560       -1.2470759918
 H        -8.5430202567        3.1001807887        0.2239374780
 H        -9.7326062751        2.2984973159        1.4482267859
 H        -9.9470506104        6.1839930676        3.5706433272
 H        -9.1804941844        6.4973638863        5.0448082028
 H       -10.8125202019        5.2824900630        6.2012945706
 H        -9.4688782675        4.0360852257        5.8405581144
 H       -13.6416785681        3.6739028516        7.3858565950
 H       -14.6803522111        2.3273941492        6.9820727592
 H       -16.1248144925        4.3940861288        7.0173103751
 H       -15.8694141851        4.1091270724        5.2971001645
 H       -15.8770093595        8.7828349088        3.4262352966
 H       -16.5873724929        7.3090002777        2.7219851937
 H       -15.0642140447        7.7084972408        2.0460129199
 H       -17.2279661663        6.6781041703        5.2737856923
 H       -16.7027707862        8.3756756256        5.8276295866
 H       -16.8187786869        7.1694200015        6.9755722436
 H       -13.3188788064        8.1587804899        6.0491615163
 H       -14.7977175514        8.8860513805        6.6140599785
 H       -14.2478992195        8.8684877713        4.8584855627
 H       -10.4863130484        1.3878173341        3.9877309909
 H       -12.1454619154        1.2934053336        3.4060183028
 H       -11.7774523091        0.5154027307        4.8490028911
 H       -10.2385202521        1.9668748710        6.2385841691
 H       -11.6647232458        1.2819615648        6.9693111333
 H       -11.1857489978        2.9196698179        7.1615556218
 H        -5.8666454819        4.5128114975        2.4553860677
 H        -6.4799876851        3.8134233814        0.9931245561
 H        -6.6450016100        2.9517118663        2.5121775209
 H        -8.4626297329        7.0164461632        2.5341638682
 H        -7.4617837722        6.3757114348        1.1286622523
 H        -6.7222299985        6.4936824643        2.5758972153
 H       -13.3073763056        1.3824282031       -3.2885638289
 H       -12.1890285916        2.8600468108       -3.0052677910
 H       -13.5285105988        2.7257556511       -1.9912683717
 H       -13.3203140442       -0.3036647832       -2.1334899906
 H       -13.6713191332        0.7130389424       -0.6554058880
 H       -12.5757747334       -0.6467228378       -0.4190954219
 H        -8.0329826095        0.5854358025       -8.3746593240
 H        -9.4588389029        0.9923616360       -7.4843312570
 H        -9.0885570337       -0.7528837976       -7.5097640554
 H        -6.4458003797       -0.9475175229       -7.7861666684
 H        -6.4137395465       -1.4904794154       -6.0106694308
 H        -5.5219589288       -0.0317805670       -6.8417907809
 H        -3.8302144144        6.1575945381       -9.2543663839
 H        -3.9312901140        7.5600204605       -8.2128162189
 H        -5.2381186543        6.4132014491       -8.2873037404
 H        -1.9398147332        4.4068016095       -6.3372790726
 H        -1.7058228310        6.0867801787       -6.6781424190
 H        -1.9400346914        4.8876654489       -7.9741408171
 Na      -13.2966886576        3.4336885964        2.3447074023
