117

 C        -3.0881953029        7.3789803298       -5.1273163788
 C        -3.9890520124        6.1609269821       -5.3642651592
 O        -5.0023647024        6.0310448412       -4.7738315143
 C        -3.7534289441        5.3688431783       -6.7024203828
 C        -4.5626350307        3.9581297816       -6.6440044198
 O        -3.9796549708        3.0228548093       -6.2340440347
 C        -5.9661720502        3.9312955838       -7.1890335684
 C        -6.6345501157        2.4411457816       -7.5639428325
 C        -7.0384612126        1.6925578890       -6.1690599227
 O        -6.8977120994        2.3220821007       -5.0825544521
 C        -7.7875837203        0.3763746015       -6.2469408428
 C        -8.5820181971       -0.1882004530       -4.9374303667
 O        -8.7137216767       -1.4027309125       -5.0423469955
 C        -9.4171503053        0.6240640606       -3.9514320332
 C       -10.4675170814       -0.2403353731       -3.1484787559
 C       -10.5603892930        0.4447269831       -1.8598949143
 O        -9.7816560677        0.3429742277       -0.9309892556
 C       -11.9630989709        1.2382036686       -1.4630758479
 C       -11.7899657411        2.1723757196       -0.2629779725
 O       -12.6147487310        2.2346334536        0.6065500676
 C       -10.6707289226        3.2586073498       -0.3383356826
 C        -9.5055038387        3.1402502247        0.7227423148
 C        -9.2075513922        4.6111735613        1.1546120263
 O        -9.9782214032        5.5254168634        0.9478537516
 C        -7.9724720640        5.0651224529        2.1234349599
 C        -8.3869379109        4.8313234755        3.6835585833
 O        -7.7742197298        4.0267094760        4.3160253755
 C        -9.6413225586        5.6478347103        4.2746183134
 C       -10.3308059480        4.8129028455        5.3849539280
 C       -11.4744778842        4.0416009623        4.6745072365
 O       -12.0549596320        4.5665318917        3.7582421738
 C       -12.0855337363        2.7215434001        5.0457691843
 C       -13.5366980377        2.9066304574        5.2150969348
 O       -14.3460061169        2.8081012403        4.2882338893
 C       -14.0590376281        3.3237492274        6.5807964196
 C       -14.9730469704        4.4756917461        6.3121831087
 C       -14.3449473617        5.8768464370        6.1929893783
 O       -13.2765150120        6.0664371292        6.7679781777
 C       -14.9844228316        7.0800290472        5.4934023196
 C       -14.8623126843        6.9335287097        3.9297807554
 O       -14.3456689088        6.0013299135        3.3295528868
 C       -15.5783930196        7.8512598487        3.0295489692
 C       -16.5701544267        7.2692406083        5.8199009900
 C       -14.0556772493        8.4135364020        5.8147150232
 C       -11.6733855498        1.5576736218        4.0910557626
 C       -11.5429565326        2.3230991704        6.4890239435
 C        -6.7096092874        4.2324198931        1.8983860143
 C        -7.6627920283        6.5866263997        1.9510410038
 C       -12.4019468282        2.0953697642       -2.7061995519
 C       -12.8731376590       -0.0609714177       -1.0908099610
 C        -8.8053680076        0.3767023213       -7.4261058267
 C        -6.5274305083       -0.6338453363       -6.3095766144
 C        -4.2382755932        6.3074292149       -7.9226199941
 C        -2.2175471021        4.8412043528       -7.0742905994
 H        -3.3713502925        8.4505567177       -4.8370156202
 H        -2.5031210154        7.5588872096       -5.9554881643
 H        -2.3805081805        7.0555444343       -4.4324862719
 H        -6.1360208367        4.5860817860       -8.0866255042
 H        -6.7188916717        4.1535801208       -6.4720568539
 H        -5.8537173846        1.7222651090       -8.0077124703
 H        -7.5675733358        2.4411374163       -8.0350651269
 H        -9.9622239547        1.3944464256       -4.5922234018
 H        -8.6982802409        1.0760265830       -3.3393337737
 H       -10.0000316688       -1.2237930289       -2.8605233317
 H       -11.3522538096       -0.0654619169       -3.8296384280
 H       -11.1521737733        4.2568701333       -0.2248531158
 H       -10.1162775142        3.2284641538       -1.3191534946
 H        -8.5558284055        2.7459171070        0.3763130285
 H        -9.8818209167        2.7110218923        1.5687726042
 H       -10.2857566016        6.0109895444        3.5535366084
 H        -9.3493013014        6.6617595642        4.6373899471
 H       -10.6728165476        5.4659053426        6.1328240561
 H        -9.5719428551        4.1326864431        5.6786583500
 H       -13.4203187143        3.7452195794        7.3723407590
 H       -14.4474534074        2.3826325579        7.0772070441
 H       -15.6657738885        4.5111325569        7.1460199033
 H       -15.6350458242        4.1640569689        5.5556043848
 H       -15.4624225123        8.8862859418        3.3615548637
 H       -16.6899010188        7.6861145411        3.1122600422
 H       -15.2479139909        7.6150414834        2.0375971056
 H       -17.0315793309        6.2041985803        5.8278883791
 H       -17.0433193294        7.9043773888        5.0458436070
 H       -16.6342031371        7.7878403171        6.7243631553
 H       -13.1019463836        8.1102869115        6.2307074635
 H       -14.6225190040        9.0684263834        6.4118213946
 H       -13.6930061113        8.7888117069        4.7647938339
 H       -10.5962558535        1.5132955736        3.9123722265
 H       -12.2301024840        1.4885921731        3.1860477491
 H       -11.8653884121        0.5402710050        4.4844656113
 H       -10.5261029788        1.7755782137        6.5739567621
 H       -12.3892672506        1.7204219351        6.7477962304
 H       -11.4517505558        3.0179259377        7.2995169625
 H        -5.8146324523        4.4914532597        2.4750758860
 H        -6.3514312682        4.3654374286        0.8531369920
 H        -6.8925973609        3.1652056271        1.9622646273
 H        -8.6345498940        6.9695104792        2.1165990575
 H        -7.3425411181        6.8986978931        0.9542180202
 H        -6.9340668463        6.9519084360        2.6958533506
 H       -12.2591631269        1.5239400459       -3.5647974517
 H       -11.8015804127        2.9598704787       -2.7122110816
 H       -13.4470535371        2.3721652574       -2.4292934268
 H       -12.5078595514       -0.8715615294       -1.7059365226
 H       -13.9226287288       -0.0136755658       -1.0180347540
 H       -12.5486464197       -0.1228793962       -0.1094529875
 H        -8.2279789056        0.3383775904       -8.4176360004
 H        -9.2900156764        1.3786584118       -7.1956768939
 H        -9.4829991562       -0.3099976633       -7.1252151472
 H        -5.6156844139       -0.4169371027       -6.7855388651
 H        -6.9148818777       -1.6545350918       -6.5120802227
 H        -6.0478635600       -0.6096624933       -5.3209172453
 H        -4.5059016202        5.7211945505       -8.7706649865
 H        -3.3694854141        6.8767504287       -8.2897188921
 H        -5.1166621963        6.9769537800       -7.8463900455
 H        -1.8642980420        4.3414513008       -6.1502209982
 H        -1.4941874725        5.6432614693       -7.3875268894
 H        -2.4702192859        3.9368029144       -7.6242195876
 Na      -13.1240281750        3.2813555208        2.4069961813
