117

 C        -2.8873555235        6.9283910453       -4.9338278232
 C        -4.0399667403        6.0833562534       -5.2186109480
 O        -5.1004741481        6.0553001463       -4.6567177792
 C        -3.7559337682        5.0319983096       -6.4636627831
 C        -4.5302500552        3.7306766542       -6.2692930865
 O        -4.0303839826        2.7789354909       -5.8156303446
 C        -5.9144703179        3.6440128509       -6.9068119372
 C        -6.4100953698        2.1912338838       -6.9702549813
 C        -7.1428095687        1.4846868378       -5.8291894184
 O        -7.2259785762        2.0717505895       -4.6954069953
 C        -7.7555025358        0.1890295302       -6.2058132754
 C        -8.8764331644       -0.4049975139       -5.0829333054
 O        -9.3694961457       -1.4559611420       -5.2833810761
 C        -9.1283461707        0.4162579141       -3.8124484432
 C        -9.9171297364       -0.4011861710       -2.7826899050
 C       -10.5015259336        0.2075585616       -1.4530230127
 O        -9.8036518679        0.0403213732       -0.4824684667
 C       -11.8938866790        1.0512391633       -1.4619854623
 C       -11.7381218029        2.1814490984       -0.4019648791
 O       -12.6074669319        2.3525669152        0.4843923130
 C       -10.6181144104        3.2284843055       -0.4945322354
 C        -9.9919514656        3.5015443919        0.8325198304
 C        -9.3726223543        4.9114475860        0.9351013955
 O        -9.9270545780        5.8072802638        0.3760298840
 C        -8.0541333294        5.2286769092        1.8267962272
 C        -8.4474321932        4.9252730891        3.2693559663
 O        -8.0718972020        3.8858225878        3.7190509534
 C        -9.4322842372        5.7658118620        4.1321287419
 C       -10.1878628091        4.9877606157        5.2143516596
 C       -11.4416302386        4.2233664586        4.6506777035
 O       -11.8954711255        4.5505584804        3.5852002287
 C       -12.0134528112        2.9921263308        5.2088390317
 C       -13.6043611866        3.0237013377        5.3823071745
 O       -14.2786017082        2.8117129652        4.4037314584
 C       -14.3375225332        3.4079737725        6.6135338142
 C       -15.0475682013        4.8909127253        6.3974622425
 C       -14.0457484613        6.0506423414        6.2283366962
 O       -12.8408084189        6.0969353775        6.2320656004
 C       -14.7145709966        7.3156706844        5.4585316271
 C       -14.7776156587        7.0152355657        3.8689625767
 O       -14.3871665424        5.8701573015        3.5161832472
 C       -15.4463514649        7.9912629931        2.8986705062
 C       -16.1827526062        7.5392081877        5.9597986611
 C       -13.9224535223        8.6321297515        5.6865070108
 C       -11.7045680105        1.7785620670        4.1637675790
 C       -11.3852688104        2.5953621680        6.5229454357
 C        -6.8856001586        4.4174335367        1.3972780562
 C        -7.7316379353        6.8049008102        1.7536463072
 C       -12.1103820731        1.7876731944       -2.7553476161
 C       -13.1244476215        0.1323403863       -1.1311152716
 C        -8.6565428554        0.1260315626       -7.5738369759
 C        -6.6969476347       -0.8334715368       -6.5488581940
 C        -4.2188899624        5.7514486748       -7.7837034391
 C        -2.1997973632        4.6850657137       -6.7574806403
 H        -3.1192774819        7.6286415388       -3.9720027277
 H        -2.5140660921        7.6697076750       -5.6257413985
 H        -2.0219355459        6.2813928553       -4.6019159847
 H        -6.0123011392        3.8373057336       -7.9928154343
 H        -6.5518491240        4.2922125720       -6.4077057923
 H        -5.3747592169        1.6814635826       -7.0882347123
 H        -7.0535581245        2.0476822752       -7.8290059271
 H        -9.4280372380        1.4242319765       -4.1660958210
 H        -8.2192589785        0.3697834989       -3.3241973520
 H        -9.2654123302       -1.1792165663       -2.5332601755
 H       -10.6680125917       -0.9218750810       -3.5248992313
 H       -11.0707805680        4.1457662111       -0.8757393094
 H        -9.7396949678        2.9570294395       -1.0202737845
 H        -9.1248396834        2.8216219458        0.9086847785
 H       -10.6637995218        3.4783590199        1.7582586466
 H       -10.1167275115        6.3946628848        3.6412077811
 H        -8.7622259102        6.6658594346        4.5533101857
 H       -10.4924232553        5.6818689280        6.0490815789
 H        -9.4609157283        4.2354876176        5.4664382323
 H       -13.8000663400        3.3302032851        7.6321309355
 H       -15.1677384721        2.6599377650        6.7980477981
 H       -15.7692726437        5.0647195620        7.2459498578
 H       -15.7423628872        4.7214010044        5.6060951750
 H       -15.6529975408        8.9573090167        3.3665293065
 H       -16.4640455673        7.5744546173        2.7193168408
 H       -14.8558426400        8.0798373150        1.9667799415
 H       -17.0431385068        7.1167350388        5.3355310902
 H       -16.4393453908        8.5497067394        5.8436919960
 H       -16.1654819126        7.1588652307        6.9884325928
 H       -13.0342445030        8.3787134076        6.2208159974
 H       -14.5756245393        9.1996718993        6.2050208538
 H       -13.6413369571        9.2024745225        4.7797550753
 H       -10.6411300922        1.5598788579        3.9778559648
 H       -12.2252913319        1.7334724685        3.2175925801
 H       -11.9723385390        0.8736790323        4.6297258223
 H       -10.2963992024        2.6372443816        6.2492989245
 H       -11.5905090632        1.6271903200        6.9244136279
 H       -11.5462818602        3.3347856871        7.2489135163
 H        -6.0253076984        4.6345001197        1.9612589216
 H        -6.4978621859        4.5241270465        0.3572179882
 H        -7.2145617484        3.3927271765        1.5537817731
 H        -8.6350593888        7.2923137032        1.8659706588
 H        -7.3161804596        7.1709393983        0.7968695160
 H        -7.0699752503        6.9994814525        2.6278840671
 H       -12.5082789389        0.9531621637       -3.2312185178
 H       -11.2070161912        2.0430575278       -3.3329367712
 H       -12.9795027613        2.4583988067       -2.6382423063
 H       -13.4332856213       -0.3520381843       -2.1345311717
 H       -13.9377749038        0.7709431237       -0.7753108086
 H       -12.9250781228       -0.4961168602       -0.2515192047
 H        -7.8482888323        0.4204859464       -8.2715954718
 H        -9.6041621586        0.6505783875       -7.4705828766
 H        -8.7115730362       -0.8814240740       -7.6967900497
 H        -6.0378681495       -1.0426011222       -5.6478621109
 H        -6.0438279053       -0.4284807107       -7.4450653629
 H        -7.1706893768       -1.8967003497       -6.6216780592
 H        -3.9150585131        5.1963453253       -8.6955741926
 H        -3.7703621116        6.7389584929       -7.8365679894
 H        -5.3180926832        5.7952309894       -7.9662218286
 H        -1.8349285820        4.1999938041       -5.9177326956
 H        -1.7617808919        5.6319297838       -6.8644155357
 H        -2.1343850297        4.0391660240       -7.6298189869
 Na      -13.6466153046        3.8215553561        2.1775201535
