117

 C        -2.9037724690        6.9278722206       -4.6450836658
 C        -3.9564322470        5.9583310598       -5.1775564759
 O        -5.0426638240        6.0162347462       -4.7214985515
 C        -3.7403939390        5.1070923705       -6.5429890114
 C        -4.5189246378        3.6454055858       -6.2687871087
 O        -3.9248475464        2.7627350578       -5.6376419529
 C        -5.9659220378        3.5542186917       -6.7390676809
 C        -6.3547308991        2.0602402814       -6.9787877030
 C        -7.3239829426        1.4697853982       -5.8374466325
 O        -7.4536822418        1.8810707575       -4.7164370411
 C        -7.8087603821       -0.0178324622       -6.2339840280
 C        -8.8176512681       -0.4728629084       -5.0514322065
 O        -9.5186076093       -1.4588541626       -5.3982760499
 C        -9.0288374904        0.1891492836       -3.6509314147
 C        -9.9384129140       -0.6111278350       -2.6191175398
 C       -10.4561769262        0.2741342967       -1.4217225090
 O       -10.0552652463        0.1297861972       -0.2760136630
 C       -11.8515913037        1.1008228493       -1.5080897696
 C       -11.8099832586        2.2607034130       -0.3767378900
 O       -12.5697534436        2.3774862223        0.5579735420
 C       -10.5690212553        3.2048839625       -0.5324053804
 C       -10.0370983145        3.6151017471        0.8866923783
 C        -9.4572019462        5.0659781525        0.8690275380
 O        -9.9201589203        5.9376966350        0.1654662360
 C        -8.1889250205        5.2428463578        1.7768932420
 C        -8.5949141961        4.8287533671        3.1939846532
 O        -8.1845656610        3.7444241254        3.6045268519
 C        -9.3741378443        5.7843466902        4.0854330369
 C       -10.1228627381        4.9991830091        5.1390186976
 C       -11.4149634809        4.2399324147        4.4506224285
 O       -11.6676837587        4.6206478989        3.2973742321
 C       -11.9964911611        2.9346535089        5.3266028660
 C       -13.5602251860        3.0724109345        5.3247729492
 O       -14.2446412652        2.9029283382        4.2907500973
 C       -14.0526942276        3.5802791017        6.6698335449
 C       -14.9386477155        4.8753075898        6.3854465882
 C       -14.0908742122        6.0485384445        5.9947997121
 O       -12.8617441701        6.0092390924        6.1238208872
 C       -14.7342988264        7.4119509474        5.4033706629
 C       -14.8589530329        6.9582474796        3.9111365518
 O       -14.5021565062        5.8490847534        3.6165796234
 C       -15.4105702215        8.0046790952        2.9256709211
 C       -16.1957064364        7.7262347011        5.8810146403
 C       -13.6468774019        8.5322909506        5.6678598043
 C       -11.7107279575        1.8801253874        4.2674411091
 C       -11.3647234035        2.7370454227        6.8061073355
 C        -6.9797001678        4.4883716763        1.2474217064
 C        -7.7954855330        6.8047277509        1.7287042431
 C       -12.0068948235        1.8029099259       -2.8949810612
 C       -12.9062094335        0.0552507644       -1.0973246227
 C        -8.7607041094        0.1964256149       -7.5203021263
 C        -6.6771016495       -1.0167279315       -6.3703242928
 C        -4.0763538775        5.8069260347       -7.8260001446
 C        -2.2461210302        4.5465244358       -6.6326776065
 H        -3.1427689541        7.2777134773       -3.6244393309
 H        -2.6796674751        7.9086656695       -5.1915841376
 H        -1.9490301158        6.4622915686       -4.5660671137
 H        -6.1980874315        4.0027543867       -7.7113485000
 H        -6.5511475834        4.0702222968       -5.9792300794
 H        -5.3355869671        1.5114327564       -7.0560885004
 H        -6.9475469254        1.9465281035       -7.8637748601
 H        -9.5083274776        1.1211623456       -4.0057490454
 H        -8.1764777041        0.2804553730       -3.0519893702
 H        -9.4452759495       -1.6526666964       -2.3121356588
 H       -10.8344544284       -0.9375584615       -3.1693438491
 H       -10.8276565102        4.1429917848       -0.9819068191
 H        -9.7143644271        2.7269884074       -1.0451808471
 H        -9.4269849593        2.8688355559        1.4426130070
 H       -10.8961453661        3.8676179242        1.4388739260
 H       -10.0679352136        6.3135742056        3.4553126961
 H        -8.7791304250        6.6455192079        4.4283599777
 H       -10.4556064475        5.5861365274        5.9125078593
 H        -9.3615394339        4.3127294314        5.3600706085
 H       -13.3083613298        3.7159472404        7.4535302016
 H       -14.8028549543        2.8596777050        7.2190323252
 H       -15.4647495787        5.1573370744        7.2711801950
 H       -15.7338478359        4.4899275051        5.8080569912
 H       -15.6305292722        8.9743613564        3.4649021915
 H       -16.4127000561        7.7697790283        2.4452019157
 H       -14.6430114355        8.1992035643        2.1910315989
 H       -17.0359618852        7.5957829325        5.1387871751
 H       -16.3085003396        8.8262980108        5.9516111021
 H       -16.3554975239        7.1971800260        6.7302447473
 H       -12.8221153209        7.9990829255        5.9864891231
 H       -14.0686290811        9.2449359267        6.3356372915
 H       -13.4559603855        9.1374860838        4.7407667198
 H       -10.6524557159        1.7929840635        4.1890189945
 H       -12.0388866997        2.1452882811        3.3176084879
 H       -11.9872345962        0.8145943213        4.3764952030
 H       -10.2822905675        2.4450737841        6.7123689059
 H       -11.8409619706        1.9743260766        7.3735131787
 H       -11.4640262481        3.6904215464        7.3021501963
 H        -6.0182831661        4.9489302725        1.6174934972
 H        -6.8432952394        4.5828609030        0.1739358386
 H        -7.0362178381        3.4244272992        1.4901048943
 H        -8.6066925117        7.4481107336        2.0487675658
 H        -7.6084936244        7.1151699652        0.7419982738
 H        -6.9699581846        6.9143167060        2.3778413505
 H       -12.5917222599        1.0812172588       -3.4725056015
 H       -11.1338937712        1.9625914275       -3.3634284386
 H       -12.7295777412        2.6018960028       -2.7213555608
 H       -13.1926013455       -0.3301263166       -2.0567821836
 H       -13.7791416864        0.4914180868       -0.5755240011
 H       -12.5076903512       -0.6892583995       -0.4168181214
 H        -7.9130952310        0.3194747906       -8.1946128945
 H        -9.2417475275        1.1834001671       -7.2406736142
 H        -9.3473195435       -0.6684526138       -7.7681820074
 H        -6.5398336282       -1.6698637066       -5.4212139125
 H        -5.6858365958       -0.4540363549       -6.6274275769
 H        -6.9287049389       -1.8796995983       -7.1027210795
 H        -4.0235982315        5.1947423489       -8.7187043848
 H        -3.2869516180        6.5984695936       -7.8937285906
 H        -5.0989343499        6.2591755515       -7.9004699969
 H        -2.0281115917        4.1253306415       -5.6277979420
 H        -1.5772776411        5.3393458294       -6.9449535217
 H        -2.2809563266        3.8064034699       -7.3729110511
 Na      -13.7908969162        4.0139879713        2.1236513666
