117

 C        -2.8608330198        6.6126306697       -4.4626644101
 C        -3.9666650697        5.7941518256       -5.1803613047
 O        -5.1601687236        5.9148471023       -4.8671976086
 C        -3.5533934134        4.9227286482       -6.3471929539
 C        -4.3984085634        3.6112764744       -6.0786805027
 O        -3.9058319362        2.7211566861       -5.4874719942
 C        -5.8786087799        3.4654800989       -6.3854771548
 C        -6.2777418278        1.9999133295       -6.7826421497
 C        -7.3325287038        1.3170851037       -5.7242304142
 O        -7.7542041586        2.1124186767       -4.8474021177
 C        -8.0609324858       -0.1134336167       -5.8995145966
 C        -9.1786877591       -0.6601146880       -4.8397967288
 O        -9.9336315966       -1.5022656980       -5.1444464851
 C        -8.9113961507       -0.2912185920       -3.4216886063
 C       -10.0515409008       -0.7564118400       -2.5071403061
 C       -10.4278336611        0.1773939483       -1.2964993778
 O        -9.8523912924        0.1983083276       -0.2413959756
 C       -11.7743210805        1.0871466137       -1.4576741076
 C       -11.7612358699        2.3090360230       -0.4774315536
 O       -12.7128305946        2.4309833578        0.3214236207
 C       -10.5469122672        3.2593309610       -0.5897328048
 C       -10.2067070000        3.8762707761        0.7895780302
 C        -9.4769544782        5.2053743735        0.6944148682
 O        -9.8192795372        6.0624905266       -0.0748969366
 C        -8.2077650733        5.4364385451        1.5936034072
 C        -8.5964946811        4.8475652373        2.9614346062
 O        -8.5116538155        3.6743847810        3.1826169801
 C        -9.1886276219        5.8564003324        4.0170340881
 C       -10.0523168738        5.1097610340        5.0665113852
 C       -11.1891487067        4.3051787752        4.3402923061
 O       -11.7251605899        4.5624140853        3.2925925024
 C       -11.8797296541        3.0097497824        5.2857795771
 C       -13.4074762789        3.3612604162        5.2799683340
 O       -14.0851075932        3.3572378094        4.2656006985
 C       -14.1889673038        3.6767501760        6.5953832216
 C       -14.9844630417        4.9866450184        6.5198243743
 C       -14.1084566281        6.1524255518        6.0405471752
 O       -12.9601193042        5.8213150360        5.9286055664
 C       -14.6149408275        7.4523419730        5.2426492491
 C       -14.9032072552        7.0246503666        3.7350444971
 O       -14.8058548310        5.8076390157        3.3915747444
 C       -15.2308149510        8.1178191773        2.7597771012
 C       -15.8810148364        7.9516523321        6.0014766698
 C       -13.4934124057        8.5449793094        5.3532545982
 C       -11.5082508136        1.6188802822        4.4553704765
 C       -11.1359533652        2.9095642295        6.7077062742
 C        -7.1757213798        4.5519582340        0.8830977168
 C        -7.8924616525        6.8991270057        1.6650711258
 C       -11.9639983964        1.7265816439       -2.7912647239
 C       -13.0337359683        0.1192327779       -1.2410696997
 C        -8.7892965168       -0.0087142365       -7.3263869255
 C        -6.9541387130       -1.3372039623       -6.0895154667
 C        -3.9462930630        5.7460380372       -7.6106825401
 C        -2.0262134946        4.5366968908       -6.3461203736
 H        -2.8438632291        6.6010099345       -3.3221390102
 H        -2.9440007257        7.5808891923       -4.7144841729
 H        -1.8611346871        6.4493321505       -4.8020858129
 H        -6.3690669841        4.1090055029       -7.1404553811
 H        -6.4204179641        3.6826916773       -5.4104734068
 H        -5.4107846891        1.4990816701       -6.5087140761
 H        -6.5842211112        1.8905111272       -7.8452198392
 H        -8.5500207417        0.7624012685       -3.2455382337
 H        -8.1151273197       -1.0372888098       -3.0611115617
 H        -9.8041055136       -1.6278448375       -2.0861800278
 H       -10.9607618788       -1.1693346721       -3.0434095867
 H       -10.9255205310        4.0507404699       -1.3094447056
 H        -9.6933807247        2.7320885087       -0.9881124480
 H        -9.5397244615        3.2803916079        1.3807527937
 H       -11.1672467846        3.9365583690        1.4540259526
 H        -9.7017866119        6.6953323970        3.5165391408
 H        -8.3209515523        6.3481825578        4.5902244856
 H       -10.7921854181        5.7604735309        5.6823615258
 H        -9.2602564189        4.5057405337        5.5850753257
 H       -13.5327694698        3.8135171288        7.4819028537
 H       -14.7766527527        2.9180877734        6.9155743399
 H       -15.7793665241        5.0387373583        7.3347886287
 H       -15.6454459537        4.8458013341        5.5946964640
 H       -15.6457009714        8.9622742801        3.2499413361
 H       -15.9416755871        7.8424029887        2.0185939906
 H       -14.2935032651        8.5024367792        2.2964337303
 H       -16.8338580268        7.7290979580        5.4947042100
 H       -15.9268575650        8.9906969427        6.0236369425
 H       -16.0153154303        7.4039768160        6.9898889545
 H       -12.5273871949        8.1655838886        4.8016079019
 H       -13.3465618277        8.7413830117        6.4291811624
 H       -14.0052711332        9.4867149249        5.1023981242
 H       -10.3878615536        1.5260696824        4.3231652541
 H       -11.8687758316        1.4780714549        3.3784103213
 H       -11.7477511397        0.7048500143        4.9289143410
 H       -10.2062716107        2.3995571301        6.4457547850
 H       -11.5532128381        2.2155363094        7.5073973661
 H       -11.0604073397        3.9182481411        7.1338594690
 H        -6.1780132149        4.8123388993        1.1287853221
 H        -7.2481142436        4.7434151177       -0.2194114510
 H        -7.3025880500        3.4786517741        1.0356015263
 H        -8.5740106645        7.5903628573        2.1193744777
 H        -7.9060848383        7.2089433509        0.5816802899
 H        -6.8861790604        7.0461888683        2.1629804435
 H       -11.8843765681        1.0344991395       -3.6007479976
 H       -11.1121823793        2.5179694256       -2.8367491171
 H       -13.0082165347        2.0619417518       -2.7855269898
 H       -13.1593949119       -0.6685115995       -2.0121525000
 H       -13.8872064140        0.7608023867       -1.2186977548
 H       -12.9288574572       -0.3025832461       -0.2480475255
 H        -8.1441068912       -0.4183272392       -8.0884224244
 H        -9.1180293391        0.9742990716       -7.4096327505
 H        -9.4817263891       -0.7677895392       -7.0688304178
 H        -7.3157273990       -2.2575211308       -5.8384020266
 H        -6.1149186071       -1.2279343977       -5.5088797131
 H        -6.7361893599       -1.3225930289       -7.1284329573
 H        -4.3594847647        5.0810615201       -8.4064817023
 H        -3.1059346174        6.2382080535       -8.0612821247
 H        -4.7337617438        6.4960909923       -7.3986671502
 H        -1.6633545491        4.1438138972       -5.3922121777
 H        -1.6318341253        5.5374883726       -6.6459761679
 H        -1.8146492717        3.9780746299       -7.3449425991
 Na      -13.6680175616        4.1033673707        2.2147046973
