117

 C        -2.9530827678        6.5192661057       -4.2705996358
 C        -3.9868850903        5.8090831653       -5.0220330394
 O        -5.1354251577        5.9744164448       -4.8306393744
 C        -3.5516833680        4.8004188691       -6.2732896165
 C        -4.2873846960        3.3770035713       -5.9917175442
 O        -3.7015488612        2.5226740667       -5.3875790060
 C        -5.8171779860        3.3242433572       -6.3735790856
 C        -6.3092491030        1.9077223897       -6.4348828295
 C        -7.5676442631        1.3858094597       -5.6218374822
 O        -8.0428463770        2.0443866081       -4.7200467719
 C        -8.1472060426       -0.1476926689       -5.9515179801
 C        -9.0149343077       -0.7208083312       -4.7300264541
 O       -10.0705965673       -1.2431205230       -5.0389939763
 C        -8.7985560232       -0.4175143046       -3.1494760517
 C       -10.0793360744       -0.8497488353       -2.3906548647
 C       -10.4491976194        0.0751336587       -1.2605130099
 O        -9.6373298211        0.2491032034       -0.3991289534
 C       -11.8081502254        1.0986735197       -1.3878630146
 C       -11.8470948485        2.2846785348       -0.4742658080
 O       -12.7928052045        2.6194428211        0.2954739668
 C       -10.6732278312        3.2798440600       -0.6462910617
 C       -10.3120978380        3.9062817848        0.6626682839
 C        -9.5177647923        5.2482774494        0.5590635307
 O        -9.8467717830        6.1086508059       -0.1958563022
 C        -8.2227732275        5.5431959506        1.4258377551
 C        -8.5913023044        4.9458686845        2.8688984328
 O        -8.6792887173        3.7347301101        2.9707996138
 C        -9.1264666180        5.8182059525        3.9503731131
 C       -10.0491429927        5.0818163460        5.0469365555
 C       -11.1831768615        4.2838282984        4.4829702183
 O       -11.5946811484        4.6666390417        3.4106246205
 C       -11.7845788256        3.0594602811        5.2684112806
 C       -13.4191775643        3.2850174889        5.3594144092
 O       -13.9436546683        3.5325493596        4.3108458019
 C       -14.2591089049        3.5818753755        6.6489739247
 C       -14.9659115994        4.9236297344        6.3402382334
 C       -14.0037396919        6.0252040463        5.7099886418
 O       -12.8032813957        5.9619513324        5.8809358222
 C       -14.6029460970        7.4181832540        5.2450318474
 C       -14.9608139710        7.1030176841        3.7066270135
 O       -14.9579703305        5.9414857287        3.2995982184
 C       -15.1070147740        8.2190484519        2.6994305839
 C       -15.8120047861        8.0179544797        6.0400879855
 C       -13.4489961296        8.5006132585        5.1435485529
 C       -11.6238437136        1.7883313073        4.5754271644
 C       -11.1138446021        2.9388447311        6.6971285004
 C        -7.1505257083        4.6194726351        0.7581518763
 C        -7.7390719867        6.9888086371        1.5024995662
 C       -11.8516237622        1.6649459697       -2.9112206149
 C       -13.1476309620        0.1802630741       -1.2825053192
 C        -8.8980300034       -0.1898135926       -7.3233765982
 C        -7.0996148537       -1.2885032437       -5.9026933152
 C        -3.9748428277        5.5422730201       -7.5945716057
 C        -2.0512445282        4.5085026522       -6.3479538770
 H        -3.0066878679        6.1886171093       -3.1830127699
 H        -3.0053709927        7.6713043877       -4.2882553157
 H        -1.9377299835        6.4599253982       -4.6226460453
 H        -6.0205546106        3.6769531385       -7.4311821293
 H        -6.4450363188        3.9164253058       -5.7570809619
 H        -5.4733430277        1.2178588505       -6.1066007003
 H        -6.5799915332        1.7824179112       -7.4374636589
 H        -8.7505603746        0.6679172147       -2.7600962625
 H        -7.9298854644       -0.9252595345       -2.8282635122
 H       -10.2743698171       -1.8806139373       -2.0885584716
 H       -10.9371560565       -0.9179477366       -3.0783325561
 H       -11.2258025079        4.0677516640       -1.1912300967
 H        -9.8162266315        2.9099870530       -1.2161654321
 H        -9.7537906987        3.2688759408        1.4442931329
 H       -11.3187871631        4.0724239683        1.1490312321
 H        -9.6103972659        6.6479798323        3.4454600553
 H        -8.2502785007        6.3281146035        4.6139487927
 H       -10.6000839386        5.8749213313        5.7075783766
 H        -9.2562593690        4.4421785803        5.5191303171
 H       -13.8175874499        3.7148373233        7.6310285446
 H       -14.9396223348        2.6719746700        6.7464214725
 H       -15.1078616001        5.5325620769        7.3408584800
 H       -16.0092192150        4.8928430255        5.9898794874
 H       -15.6729294338        9.0681336491        3.0849324843
 H       -15.5981784006        7.8172876687        1.8124759666
 H       -14.1691196511        8.6424428304        2.4908146412
 H       -16.8334774113        7.5096670382        5.7352251052
 H       -15.9620088951        9.0685099565        5.6956422397
 H       -15.7896026181        7.9047674367        7.0944712206
 H       -12.9352744230        8.2869323569        4.2484988091
 H       -12.7787434765        8.4229920574        5.9398886881
 H       -13.9726632443        9.5125673949        5.3241770826
 H       -10.6929416861        1.3977262931        4.1272492548
 H       -12.2868915128        1.6519402363        3.7102425775
 H       -11.9370527563        1.0280612017        5.3298332892
 H        -9.9693492846        2.9906367743        6.6382345373
 H       -11.1704938051        1.9486359361        7.1272439917
 H       -11.6106228692        3.6544433780        7.2893558179
 H        -6.2290951149        4.8329308372        1.2749064236
 H        -7.0025169879        4.9384215321       -0.2883130695
 H        -7.2627453322        3.5583204858        0.7616420111
 H        -8.4858695241        7.6727453561        1.9083348356
 H        -7.5928508857        7.3772289184        0.4475082107
 H        -6.8351947159        7.0917592731        2.1929196855
 H       -11.4888280705        0.8283394607       -3.5195471740
 H       -11.1833486725        2.4919322453       -2.9726642272
 H       -12.9665708633        1.7855429145       -3.2297823742
 H       -13.2684015189       -0.8307318368       -1.7550265914
 H       -13.9255402069        0.9000554586       -1.6080590425
 H       -13.2914224982        0.1205213457       -0.1921534728
 H        -8.1691596017       -0.1611776683       -8.1202594048
 H        -9.5148548337        0.6797931769       -7.2223091280
 H        -9.3481343309       -1.0786187925       -7.2828037831
 H        -7.7221931196       -2.1055147810       -6.1702592272
 H        -7.0015415464       -1.6544514185       -4.8833456481
 H        -6.1746188927       -1.2550837188       -6.5107616154
 H        -4.0781193446        4.7535765264       -8.3452456608
 H        -3.1264292947        6.1104812911       -7.9667586092
 H        -4.8621781429        6.2236767168       -7.6076064940
 H        -1.9685557801        4.0821587216       -5.3685613848
 H        -1.4826938276        5.4404672502       -6.4358469910
 H        -1.7209471586        3.9108158999       -7.2051550501
 Na      -13.4647237854        3.9731129826        2.1360194270
