117

 C        -3.2366618207        5.7726139384       -3.8023003471
 C        -4.2143776204        5.4065418476       -4.8671587546
 O        -5.3195471005        5.8486742165       -4.9669862963
 C        -3.7412799543        4.4003009358       -5.9936736346
 C        -4.3034604886        3.0124207881       -5.5592402583
 O        -3.5395796064        2.0340168439       -5.3537941006
 C        -5.8491184837        2.6968807277       -5.4729336447
 C        -6.2064389641        1.3367114148       -5.0332712315
 C        -7.7894020119        1.1316206189       -5.0400170849
 O        -8.4838805018        2.0945917121       -4.9147369742
 C        -8.2908851912       -0.1891032353       -5.2997445429
 C        -9.4905991886       -0.3122271390       -4.3492593709
 O       -10.6552507475       -0.5328340559       -4.7358338525
 C        -9.0174934636       -0.8374573577       -2.9299065506
 C       -10.0145096182       -0.8195157010       -1.7522981094
 C       -10.5416062120        0.5726119917       -1.2709619693
 O        -9.8166941031        1.0152547146       -0.3918239276
 C       -11.9078074518        1.2410190874       -1.7189796309
 C       -11.9557221039        2.5050359780       -0.8560761086
 O       -12.6022009295        2.4123490587        0.1951697089
 C       -11.0031821679        3.7123524147       -1.2079519649
 C       -10.3735555026        4.1034688306        0.1256459456
 C        -9.5334774229        5.4347909074        0.1212450301
 O        -9.7884496187        6.3113163496       -0.6937073465
 C        -8.3598541701        5.5620171377        1.1631964396
 C        -8.6772737974        4.9841264487        2.6681951853
 O        -8.6640392685        3.7496010469        2.7893904746
 C        -9.0208300778        5.8661084669        3.8200536009
 C        -9.7187105393        5.0322080208        4.9356179612
 C       -11.0070891249        4.4016874844        4.4283732209
 O       -11.4161177467        4.8012946122        3.3078524323
 C       -11.5785084909        3.2477261026        5.2961811303
 C       -13.2135519801        3.4188315628        5.2114403604
 O       -13.8565957152        3.3708705072        4.2175828322
 C       -14.0105376722        3.8262178542        6.4764313214
 C       -14.7868066624        5.1201576118        6.0811798886
 C       -13.8425167297        6.3037551873        5.5695232689
 O       -12.6204730927        6.1422464961        5.6218280374
 C       -14.3878542597        7.6201258017        4.9645655039
 C       -14.8662801046        7.2193512897        3.4050811284
 O       -14.9807368709        6.0811237470        3.0969867702
 C       -15.2766060983        8.3774341220        2.3952140906
 C       -15.6549645988        8.2327638595        5.6239114279
 C       -13.1119192263        8.6132544104        4.8424123275
 C       -11.1427780372        1.9142408070        4.4778719314
 C       -11.1074241976        3.1748908015        6.7898027065
 C        -7.2139517373        4.7391505493        0.5962090859
 C        -7.9832508613        7.0857766291        1.2518864422
 C       -11.8845735529        1.5456711924       -3.2333797477
 C       -12.9759475942        0.0840832719       -1.4521618759
 C        -8.7069318773       -0.2258748687       -6.9682943597
 C        -7.4543430597       -1.5112573045       -5.2325957324
 C        -4.1502284465        4.9581355828       -7.3422362240
 C        -2.1067265646        4.1181283714       -5.9829424489
 H        -2.6665512614        4.9459832874       -3.5385537381
 H        -3.5860060649        6.2790800349       -2.8337415736
 H        -2.5602112544        6.5726599755       -4.2386540508
 H        -6.4283529544        3.0653402298       -6.3956610919
 H        -6.1865992854        3.3760565469       -4.6855871996
 H        -5.6871671567        1.1736889068       -4.0717767902
 H        -5.7751817740        0.7198500500       -5.7316494156
 H        -8.0119572465       -0.2932126862       -2.7668324637
 H        -8.7235533976       -1.8741935055       -2.9694131593
 H        -9.7331423198       -1.5953287268       -0.9592290626
 H       -10.7462866124       -1.4881888815       -2.1177364649
 H       -11.7688011081        4.4586082041       -1.5172837726
 H       -10.3493037291        3.5375964360       -2.0923801935
 H        -9.7009992204        3.2425338936        0.5666031152
 H       -11.1590632883        4.1286381343        0.9017550235
 H        -9.7728345494        6.6070573637        3.4867260828
 H        -8.0981174947        6.3692198974        4.2682182184
 H       -10.1021339091        5.7573065070        5.7518288306
 H        -8.9622060564        4.2297953586        5.3219886498
 H       -13.4733539913        4.0794523687        7.3249326099
 H       -14.8343540893        3.1361955675        6.7246866850
 H       -15.4057432939        5.5515824867        6.9690189082
 H       -15.5389399360        4.8875979983        5.3034217675
 H       -15.8360011758        9.1429178468        2.9291220522
 H       -15.8037915696        7.9382992219        1.5436767875
 H       -14.4897569486        8.9766853841        2.1003628334
 H       -16.4769651074        7.4883387340        5.7054913941
 H       -15.9142936275        9.1726703384        5.0086732898
 H       -15.5628912156        8.7051807610        6.5551723100
 H       -12.3647890251        7.8953433437        4.5026675979
 H       -12.7195427281        9.0623593862        5.8197501020
 H       -13.4270095038        9.3340339279        4.0603762988
 H       -10.1778022208        1.4693953554        4.6710715680
 H       -11.0303067625        1.9850784782        3.4241167383
 H       -11.8854964569        1.0983447297        4.7595531479
 H       -10.0868379190        2.6582808058        6.6803364855
 H       -11.7912725452        2.6106496428        7.4101018715
 H       -10.9543958549        4.2229849259        7.1318456126
 H        -6.3585680367        4.7974573641        1.2780867115
 H        -7.0018882025        4.9887044115       -0.4350449641
 H        -7.4487448751        3.6873381431        0.5763285708
 H        -8.8330417195        7.5901293514        1.7553317834
 H        -7.7460433389        7.4980947468        0.2710383276
 H        -7.0985839907        7.3786970754        1.8324934701
 H       -12.4307238185        0.6395303596       -3.6378543900
 H       -10.8965237839        1.5466883984       -3.5943537385
 H       -12.3041487426        2.5640933707       -3.5372242786
 H       -12.9947277737       -0.5762419632       -2.2772464843
 H       -13.9348096965        0.5896702157       -1.4634087317
 H       -12.8200734945       -0.5482425757       -0.6077648565
 H        -7.7884027106       -0.0435115345       -7.3944611485
 H        -9.3478822388        0.6154489609       -7.0905469958
 H        -9.0944319703       -1.2253965258       -7.1570778118
 H        -6.4926405845       -1.2985644568       -5.5527558888
 H        -7.7862163603       -2.2038814152       -5.9243980739
 H        -7.4790552464       -1.9219210075       -4.2977322587
 H        -3.9143343784        4.1625215511       -8.0129878415
 H        -3.5093894995        5.8144024159       -7.5836169920
 H        -5.1588162209        5.4012262775       -7.4223270116
 H        -1.8704337304        3.7971820794       -4.9290797229
 H        -1.6827507746        5.1369646448       -6.2421721044
 H        -1.8235612756        3.4363685855       -6.7849160954
 Na      -12.9924230548        3.7037839179        2.1707498483
