117

 C        -3.5277066429        5.2456286253       -3.4606235058
 C        -4.2858880811        5.1033571384       -4.6933013056
 O        -5.3634020259        5.5690097967       -4.9366492615
 C        -3.7582955086        4.0148748522       -5.6781909781
 C        -4.2971220075        2.6154262025       -5.1616185127
 O        -3.5804708321        1.6231561096       -5.2364701043
 C        -5.7726721753        2.5711853844       -4.6853033228
 C        -6.1881967241        1.1031354407       -4.3211402550
 C        -7.7058661989        0.9715984543       -4.7080013377
 O        -8.5314126122        1.8569858430       -4.7036355912
 C        -8.2408988211       -0.3559291523       -5.1911123611
 C        -9.3838088026       -0.6334557656       -3.9345064340
 O       -10.5196331813       -0.6827362784       -4.4304399457
 C        -9.1681769043       -1.0026923556       -2.5427697626
 C       -10.5765479873       -0.6576870635       -1.7323045019
 C       -10.6695734579        0.7894760311       -1.4476533447
 O        -9.6535528229        1.2006094646       -0.8822728528
 C       -11.9938462577        1.5132018988       -1.7427505363
 C       -12.1844565857        2.7264128806       -0.6822156300
 O       -12.8910562083        2.5268215697        0.3338966145
 C       -11.4405667262        4.0511106312       -0.8339164479
 C       -10.1611233531        4.0372055621        0.1007163822
 C        -9.4404783649        5.4905205784        0.0847209048
 O        -9.8050698950        6.3036173811       -0.7521525336
 C        -8.2279308994        5.6864845347        1.0486793901
 C        -8.6015601627        5.0173369244        2.3804220450
 O        -8.7992364841        3.8143170769        2.3715648172
 C        -8.8852309773        5.9842663084        3.5194991160
 C        -9.6679716049        5.3038378329        4.6471744966
 C       -10.8893463411        4.5238221342        4.2404672756
 O       -11.2896798683        4.7938374515        3.1558664948
 C       -11.5424965838        3.3293178991        5.1190329241
 C       -13.0824497399        3.3463748494        5.1607040604
 O       -13.6902439267        2.8152397809        4.2661389965
 C       -13.8464068443        4.1474621851        6.2404204558
 C       -14.6061008963        5.3812163931        5.6875061311
 C       -13.6357687361        6.6156711500        5.3422937754
 O       -12.4598856558        6.4785721427        5.5659217515
 C       -14.3031440818        7.8133826832        4.6581251872
 C       -14.5888656715        7.1568308373        3.1970457722
 O       -14.3179076174        6.0445915950        2.7737993787
 C       -15.2269190138        8.0239648647        2.2780183065
 C       -15.5104201747        8.2590936901        5.5591345760
 C       -13.2706423574        8.9554990292        4.3760607609
 C       -11.0281840895        2.0477234021        4.4678834111
 C       -10.9805561478        3.3162563169        6.6727343153
 C        -7.0659092732        4.9262341332        0.4081423788
 C        -8.0694710178        7.2441049480        1.1045504530
 C       -12.0928894005        2.1293118567       -3.2500867505
 C       -13.2327428057        0.5957777994       -1.5899774001
 C        -9.1255679565       -0.3444825679       -6.5053156827
 C        -7.1389163939       -1.4387283368       -5.3283938599
 C        -4.4545822870        4.1397868213       -7.0702401783
 C        -2.1991892983        4.2006404752       -5.9230781120
 H        -2.9125854731        4.5016982528       -3.2421590385
 H        -4.0693150178        5.4825447971       -2.5299842931
 H        -2.9138838996        6.0642674956       -3.6521905649
 H        -6.2946488940        3.0081270790       -5.5871748307
 H        -5.9521600094        3.3101239168       -3.9067096710
 H        -6.1611519601        0.9704037702       -3.2153258542
 H        -5.4356202310        0.3562244980       -4.7222505138
 H        -8.2048808899       -0.5664973788       -2.1095242534
 H        -8.8950469598       -2.0628633716       -2.5798809169
 H       -10.4595795000       -1.1680212298       -0.7924415705
 H       -11.3759149133       -1.2518001359       -2.1616758342
 H       -12.0162005657        4.8594332726       -0.3511389980
 H       -11.3575483550        4.4061728071       -1.8309998219
 H        -9.4506537179        3.3040336113       -0.2457955707
 H       -10.3530539001        3.7067949383        1.0855529836
 H        -9.4477854640        6.7257676788        3.1285705867
 H        -7.9151085023        6.3281691390        4.0056804065
 H       -10.1968220643        5.9841947376        5.3453174984
 H        -8.9843566932        4.7809451865        5.2702076522
 H       -13.3181015271        4.5916441970        6.9754917998
 H       -14.6217434976        3.4891907106        6.6091959049
 H       -15.1870290204        5.7982188324        6.5106035930
 H       -15.2511859814        5.2174662188        4.8643539357
 H       -15.5250916677        8.9658539849        2.7798371095
 H       -16.0097186667        7.3928391756        1.7689814042
 H       -14.5268414124        8.3008169681        1.4824642840
 H       -16.4821095741        8.3766434608        4.9857041303
 H       -15.3147205442        9.1622392719        6.1350669341
 H       -15.7002493106        7.7356981483        6.3924301915
 H       -12.5402959090        8.6486879015        3.6743132739
 H       -12.8192103981        9.0562408866        5.3734344120
 H       -13.8129147244        9.8131723894        3.9220181505
 H       -10.1168825745        2.1791970838        3.8916140506
 H       -11.6311758066        1.4942790101        3.7859444962
 H       -10.7556712529        1.3382328186        5.2367360824
 H        -9.8978980409        3.0611846824        6.6110462372
 H       -11.6711767440        2.5937743139        6.9775023627
 H       -10.9954704389        4.2054627680        7.2375470069
 H        -6.1130718636        5.1013218237        0.8767720165
 H        -6.9974726643        5.2282033632       -0.6792513938
 H        -7.3236700205        3.8483603473        0.4210409842
 H        -9.0157003722        7.6312063419        1.2950900113
 H        -7.5772425267        7.7655522445        0.3089414306
 H        -7.4266856971        7.5426131647        1.9313922333
 H       -11.9669919179        1.3916756466       -4.0186317604
 H       -11.6369217352        3.0006519729       -3.4593083613
 H       -13.1274542232        2.5321664873       -3.1647463873
 H       -13.1971527865       -0.3348938166       -2.2062214146
 H       -14.2133725173        1.1207546910       -1.7671598114
 H       -13.2173710593        0.1876041805       -0.5684386825
 H        -8.3943339609       -0.5532045852       -7.3116456550
 H        -9.6889235919        0.6519119749       -6.5338756967
 H        -9.7951917357       -1.1495681978       -6.2408517779
 H        -6.7750770878       -1.2737096382       -6.4002529248
 H        -7.6769334078       -2.4493686578       -5.2646024144
 H        -6.3937175171       -1.5657428683       -4.4911299479
 H        -4.3132702941        3.2363173692       -7.7007211890
 H        -3.9511946547        5.0265300439       -7.4800345236
 H        -5.5670642211        4.3730427204       -6.9365328119
 H        -1.7042281457        3.8716966590       -5.0370850314
 H        -2.1183476250        5.2677188497       -6.0113946961
 H        -1.8466691286        3.5564812446       -6.7024921767
 Na      -13.1716122442        3.6687514221        1.9931586439
