117

 C        -3.7425599405        4.9855894237       -3.1800868821
 C        -4.3975206391        4.8879158978       -4.5436373256
 O        -5.3340386323        5.5289430815       -4.8828817307
 C        -3.9277043214        3.6810501275       -5.4511922027
 C        -4.3785910825        2.3494468088       -4.7688274275
 O        -3.6482335506        1.4350825947       -4.9931074644
 C        -5.6309900248        2.1876018193       -3.7885254833
 C        -6.1717170533        0.7589732595       -4.0079782602
 C        -7.6752229038        0.7541750036       -4.4173936402
 O        -8.4326009103        1.7454848391       -4.4665575551
 C        -8.4197756987       -0.5899168420       -4.8710239630
 C        -9.7828088207       -0.8443490343       -3.9319827381
 O       -10.7010834047       -1.3208355512       -4.5132298637
 C        -9.4488774880       -1.0385839917       -2.4590726654
 C       -10.6344361321       -0.5490742171       -1.5279863580
 C       -10.7301563822        0.9838297814       -1.5619716179
 O        -9.7032870134        1.6468785673       -1.6310605620
 C       -12.1165398862        1.8133960286       -1.6589796299
 C       -12.3646410579        2.7867752714       -0.5099338742
 O       -13.1553836754        2.6397359093        0.4208882066
 C       -11.6649981245        4.1065743603       -0.6049208216
 C       -10.1420875398        4.0943779548       -0.1702915376
 C        -9.5434715041        5.5750600228       -0.0472578524
 O       -10.0183725625        6.4816591885       -0.6947344553
 C        -8.2264363038        5.8544455877        0.7838402091
 C        -8.5207645039        5.2457288209        2.2333701380
 O        -8.2832363347        4.0946996203        2.4987129913
 C        -9.0769362208        6.2467576549        3.3151508436
 C        -9.5427260006        5.3673465935        4.4723630401
 C       -10.8243030114        4.5782284293        4.0688919678
 O       -11.3623132466        4.8311417677        3.0721674715
 C       -11.3299992890        3.3853264028        5.0348837730
 C       -12.8636230354        3.4574717341        5.1493269398
 O       -13.4229716078        2.8741041195        4.2007209852
 C       -13.5922569183        4.2293285775        6.2252491970
 C       -14.5086537566        5.4743244893        5.6558436223
 C       -13.5031422004        6.6631754469        5.2545716979
 O       -12.3609415511        6.7910090862        5.5638291289
 C       -14.0539578888        7.6840579141        4.2346331754
 C       -14.3962118981        7.1889716183        2.7366845780
 O       -13.8123344036        6.1867547385        2.3260127736
 C       -15.4525533631        7.8948156594        1.8954216279
 C       -15.3482120193        8.1435163399        4.8587405804
 C       -13.0870942344        8.9488281641        4.1582956712
 C       -10.8531476926        1.9755843263        4.3369142745
 C       -10.5715658989        3.4025386144        6.4881635223
 C        -7.0246614992        4.9229892406        0.3505953508
 C        -7.8995331527        7.2899412832        0.7884086941
 C       -11.8964111922        2.5126972941       -3.0042040626
 C       -13.4156903905        0.8384933064       -1.7502878678
 C        -8.8565600126       -0.2141351462       -6.3888203868
 C        -7.4446210618       -1.7576164391       -4.7474608956
 C        -4.7407938204        3.8133980140       -6.8266266386
 C        -2.4304489444        3.6736920841       -5.7634873506
 H        -3.7578353453        3.9918581286       -2.7227754878
 H        -4.2667466395        5.6825576960       -2.3510693387
 H        -2.6502536212        5.1350126181       -3.1977467353
 H        -6.3717106362        2.8409246747       -4.1379774859
 H        -5.4052770569        2.4647411571       -2.7499105961
 H        -6.1633300988        0.2012714258       -3.0912331091
 H        -5.4988781009        0.1224146082       -4.7192380868
 H        -8.5605465273       -0.5418599092       -2.1916539379
 H        -9.1217320047       -2.0689210699       -2.4489641506
 H       -10.4912369698       -0.9065817093       -0.5832839463
 H       -11.5500048520       -1.1655596238       -1.8998451954
 H       -12.1441943809        4.9744818166       -0.1047422995
 H       -11.7664416532        4.4976724007       -1.6165997924
 H        -9.6777590703        3.5131645234       -0.9392585950
 H        -9.8164733627        3.6328620875        0.7913968723
 H        -9.9529130784        6.6495926265        2.9917008976
 H        -8.3741339095        7.0431656678        3.6699743265
 H        -9.7022945338        5.9871252791        5.3662087960
 H        -8.8512081743        4.6416346245        4.8509042439
 H       -12.8971338517        4.5982672056        7.0099866409
 H       -14.5079428542        3.5932753576        6.6330368019
 H       -15.1769131808        5.8419568102        6.4063418197
 H       -15.1429492424        5.1762801727        4.7572371974
 H       -15.5679845594        8.8782374819        2.2743327383
 H       -16.3522937010        7.3329120554        1.9973194024
 H       -15.2146561469        7.8003901831        0.8328822910
 H       -15.5543856499        9.2921882486        4.6793906600
 H       -15.5242907761        7.9694160290        5.8947746322
 H       -16.1868724913        7.5825640241        4.5358769891
 H       -12.1465889233        8.6792485500        3.8334783110
 H       -13.1424447597        9.2630885324        5.1468087774
 H       -13.4802879359        9.6484663190        3.3698935322
 H        -9.7399615279        1.9554986295        4.4129481445
 H       -11.1356546090        1.6867095456        3.2784939608
 H       -11.1350095032        1.0565584170        4.8401910177
 H        -9.4957317761        3.7520362576        6.2790732994
 H       -10.7645577901        2.4235150741        6.9546499393
 H       -11.0208641549        4.2321276014        6.9602420726
 H        -6.1757530747        5.1649141177        0.9082191799
 H        -6.6773817597        5.1570813892       -0.6694596161
 H        -7.3198548221        3.8809260531        0.4800567818
 H        -8.7415220085        7.8663865355        1.0795378119
 H        -7.8000058080        7.6832790391       -0.2862084155
 H        -6.9275011206        7.5825963018        1.3391132635
 H       -11.9032174629        1.7478363596       -3.8016575971
 H       -10.9964316788        3.0604668811       -3.0211711294
 H       -12.7410357910        3.2712541616       -3.2346666352
 H       -13.4324586521        0.2176368465       -2.7037644672
 H       -14.3581939356        1.3428736993       -1.7969114347
 H       -13.5456055831        0.2193437351       -0.8574832223
 H        -8.1461527922        0.6143385115       -6.6504363004
 H        -9.9296473794       -0.0031600903       -6.3902861851
 H        -8.7068759489       -1.0772354466       -6.9152838656
 H        -6.4184446240       -1.4769050770       -4.9498857074
 H        -7.8830055533       -2.6025064286       -5.2893592546
 H        -7.3101866637       -2.1513384598       -3.7413620840
 H        -4.3059067788        3.0751962492       -7.5038616358
 H        -4.7324410815        4.7808806359       -7.2132693753
 H        -5.6829799192        3.3511503535       -6.5906870939
 H        -1.8258126833        3.6066931615       -4.8965281590
 H        -2.2409314267        4.5608924883       -6.3658872625
 H        -2.3988166462        2.6246784444       -6.1596142134
 Na      -13.5547846403        4.0595055711        2.3071519541
