117

 C        -3.7079206156        4.8452638403       -2.9044963777
 C        -4.5391635979        4.6700508921       -4.1847638386
 O        -5.2047738949        5.5136331563       -4.7235477188
 C        -4.2484059233        3.3209496679       -5.0983591545
 C        -4.4069450143        1.9019797415       -4.4011685141
 O        -3.7449476027        1.0194533073       -4.7319711919
 C        -5.7069644563        1.6833893705       -3.4973210355
 C        -6.4051490990        0.3910138419       -3.4545409818
 C        -7.8110538980        0.3514949437       -4.0244702282
 O        -8.4274460360        1.4425425314       -3.9404805845
 C        -8.4549699626       -0.8270943673       -4.6098871385
 C        -9.8975111661       -1.0606104728       -3.8586547820
 O       -10.8997436037       -1.2226596637       -4.4438041089
 C        -9.8602821962       -1.1487303341       -2.2932732880
 C       -10.8754998076       -0.2390008434       -1.6398630325
 C       -10.7859441990        1.3811917669       -1.8396954485
 O        -9.7352313897        2.0130385642       -1.7843667014
 C       -12.2262572888        2.1494911035       -1.8420801858
 C       -12.2989772852        2.9503452517       -0.5154600613
 O       -12.8933359198        2.3510492807        0.3258499420
 C       -11.7056765675        4.2858431166       -0.3059332521
 C       -10.1455781432        4.3388059802       -0.2680310600
 C        -9.5754765021        5.8181152280       -0.0506576886
 O       -10.2217116160        6.7586177701       -0.4466607780
 C        -8.0897749125        5.9086352809        0.6385957572
 C        -8.3005609657        5.4368431227        2.1387862066
 O        -7.8550605598        4.4196796318        2.5560705962
 C        -9.1490837675        6.3892667172        3.0901530896
 C        -9.6678376867        5.6716960665        4.3334677995
 C       -10.8078841648        4.6793353450        4.0444017647
 O       -11.3263892122        4.6363451240        2.9576618551
 C       -11.0651586441        3.4199125157        5.0358824601
 C       -12.5994029873        3.5108216927        5.2072202108
 O       -13.2608995860        3.1807179094        4.2460268158
 C       -13.3361614706        4.3976027337        6.3015187931
 C       -14.1430415887        5.3735145896        5.4578433232
 C       -13.4839041859        6.7101448077        4.8613104352
 O       -12.3426840201        6.8581438692        5.2006871136
 C       -14.1381977926        7.7204538581        3.8918543481
 C       -14.3868256176        7.2140821781        2.4584711743
 O       -13.6195147499        6.3372532988        2.0398595680
 C       -15.3679525338        8.0014460507        1.5241979200
 C       -15.3559939795        8.3958384291        4.5147045166
 C       -13.0240097011        8.8401463677        3.7240615618
 C       -10.6762909817        2.1246655414        4.1454406097
 C       -10.3447587798        3.4749607465        6.4155935422
 C        -7.2004269718        5.0772363382       -0.2985538708
 C        -7.5788812803        7.3464228472        0.4479224046
 C       -12.2805863299        3.0799570642       -3.0689148869
 C       -13.4158395698        1.1234207108       -1.7732778521
 C        -8.6702364583       -0.6630188247       -6.1874342097
 C        -7.6981298080       -2.1487522731       -4.2852997211
 C        -5.1550148014        3.2845077005       -6.3898874769
 C        -2.7628175211        3.3887925160       -5.4261708818
 H        -4.2146548709        4.2777593353       -2.1296045960
 H        -3.8880326176        5.9519328474       -2.5390488268
 H        -2.7068161713        4.5691300075       -2.7903115810
 H        -6.4642218481        2.4358540001       -3.7987598247
 H        -5.3768161952        2.0423677928       -2.4520695574
 H        -6.5509945924        0.1161772609       -2.4313842567
 H        -5.8731012376       -0.4453524661       -3.8879908127
 H        -8.8381314693       -0.8673605022       -2.0198908328
 H       -10.0137662960       -2.2434053222       -1.9253799637
 H       -10.7647043682       -0.6134562882       -0.6038022331
 H       -11.7590525735       -0.7864229923       -2.2111617460
 H       -12.0373827363        4.9003623212        0.5573478740
 H       -12.2153313523        4.7910077251       -1.1431236931
 H        -9.6776160355        4.0635023498       -1.2388533078
 H        -9.6992652585        3.6418315149        0.5584558021
 H        -9.9734014448        6.8138854745        2.4459484761
 H        -8.5418985032        7.2726286365        3.4741054008
 H       -10.0854014816        6.4717264260        5.0211708173
 H        -8.8764315113        5.3246524531        5.1121602148
 H       -12.5696316258        5.0115817920        6.7920630483
 H       -14.0520685786        3.8570138339        6.9960180142
 H       -15.1033821471        5.6126569060        5.8717087341
 H       -14.2662740106        4.8179700179        4.4676268760
 H       -15.0986474667        9.0581075818        1.4630903967
 H       -16.2893849489        8.0373773371        2.1070460371
 H       -15.5600613903        7.3802419408        0.5819779669
 H       -15.7384788773        9.3530412951        3.9798721436
 H       -15.1949496230        8.8567365132        5.4784626070
 H       -16.2220692743        7.7014046943        4.5667877903
 H       -12.1735776717        8.5080725105        3.0897344855
 H       -12.8819351988        9.3365998612        4.6817095569
 H       -13.6592384443        9.6087090294        3.0490796243
 H        -9.6169011693        1.9409070806        4.2558359070
 H       -10.9469624992        2.0569584143        3.0773800617
 H       -11.1435358047        1.2834989150        4.4941752617
 H        -9.3304569444        3.0229056849        6.1893405305
 H       -10.7658398771        2.6648772783        6.9994946725
 H       -10.4622462668        4.4341158088        6.7967948756
 H        -6.1798161974        5.3306336181        0.0144247732
 H        -7.2451398954        5.3987698862       -1.3733057485
 H        -7.3274037622        4.0153024316       -0.0418672027
 H        -8.1480693066        8.1820210599        0.6123583743
 H        -7.4414608594        7.3566391446       -0.6121714231
 H        -6.6191117315        7.4849639428        0.9139188334
 H       -12.2784374629        2.3996826699       -3.9040908659
 H       -11.3762648411        3.6755455877       -3.1601580590
 H       -13.1827013463        3.6760870124       -3.3119441926
 H       -13.6617633638        0.4713942727       -2.6195314207
 H       -14.3168856627        1.7158445201       -1.7250010012
 H       -13.4336388811        0.5838219100       -0.8394209844
 H        -7.5792279436       -0.6222606337       -6.4991264250
 H        -9.2238758890        0.2504257057       -6.2180967344
 H        -9.1893646783       -1.4470555955       -6.5781184845
 H        -6.8669269002       -2.3240130707       -4.8636176373
 H        -8.4171574168       -2.9668806595       -4.2371326879
 H        -7.2071846539       -2.0380242517       -3.3415059886
 H        -5.2002019870        2.2157044369       -6.7933198536
 H        -4.7677020643        4.0268145140       -7.1107639622
 H        -6.1432572658        3.5114190114       -5.9840985046
 H        -2.0915400054        3.5304772885       -4.6202629841
 H        -2.8873703616        4.2746931385       -6.0207678293
 H        -2.5636158292        2.4635258067       -6.0525957309
 Na      -13.3080752695        3.8356766126        2.1375031847
