117

 C        -3.7903712505        4.6898581171       -2.8879822041
 C        -4.5623769514        4.5229466362       -4.1058887334
 O        -5.2033453612        5.3934230786       -4.6432899828
 C        -4.2766212201        3.2116747446       -4.9503727551
 C        -4.5516169020        1.8583434504       -4.3211409559
 O        -3.7667138132        0.9266749113       -4.6339073629
 C        -5.7385969548        1.6633498268       -3.3239293194
 C        -6.3917507277        0.2683035809       -3.2792541086
 C        -7.8913814795        0.2549648104       -3.9245484433
 O        -8.5356568174        1.2606026906       -3.8889136608
 C        -8.4567674395       -1.1080466693       -4.5609904928
 C        -9.8271846891       -1.1339786178       -3.8467106839
 O       -10.9140718141       -0.9901480492       -4.3569379803
 C        -9.8911496729       -1.0789285704       -2.2152960451
 C       -10.9897361950       -0.1227146913       -1.7129750668
 C       -10.9067195319        1.3458970441       -1.8599982664
 O        -9.9062080308        2.0159620935       -1.8998590680
 C       -12.2666855834        2.1300995360       -1.8721246495
 C       -12.3180423073        2.9464697387       -0.4278154712
 O       -12.8017769506        2.4118068408        0.5517725035
 C       -11.7315288320        4.4009267404       -0.4311495291
 C       -10.1714207888        4.4639465408       -0.2610498674
 C        -9.5902183251        5.8897823617       -0.0445898126
 O       -10.2058232282        6.9134608032       -0.2321723891
 C        -8.1382778287        5.9521730647        0.4993703098
 C        -8.3153110382        5.5595095982        2.0277083800
 O        -7.7151946499        4.5607078795        2.3754069961
 C        -9.1247227362        6.4098246445        3.0247776135
 C        -9.6227314493        5.6028192066        4.2022758906
 C       -10.6459142758        4.5807220673        3.8691012780
 O       -11.2447167666        4.6715090322        2.8629014047
 C       -11.0025153813        3.5001828181        4.9164951508
 C       -12.5770980197        3.6714714503        5.0592171904
 O       -13.3610068103        3.0166201664        4.3279920051
 C       -13.2721736616        4.5325101268        6.0313777294
 C       -14.2515613434        5.5389142563        5.3982067296
 C       -13.3466076770        6.7045162830        4.7655789997
 O       -12.2129171131        6.8610207026        5.1382810371
 C       -14.1323055830        7.7582762920        3.8313885976
 C       -14.3767534853        7.1573021948        2.4027627145
 O       -13.7863144468        6.1583441567        1.9645710614
 C       -15.2308765799        7.8900180483        1.4476718322
 C       -15.3919550041        8.3961646580        4.5258668032
 C       -13.0393686972        8.9549612925        3.5452747716
 C       -10.6014764957        2.2653245034        4.2469752129
 C       -10.2670473381        3.5727735751        6.3334598777
 C        -7.1940145791        4.9661823294       -0.1689315771
 C        -7.5580732662        7.4338942270        0.4054061098
 C       -12.2118379945        3.0874543926       -3.0763170905
 C       -13.5626816489        1.3560110547       -2.0886172871
 C        -8.7637423013       -0.7367385914       -6.0967493319
 C        -7.5086630303       -2.3018198020       -4.1299876946
 C        -5.2423730072        3.1442061248       -6.0987995739
 C        -2.7751780015        3.3238792659       -5.4622955610
 H        -4.2937451402        4.1288977924       -2.0459219028
 H        -3.7151512278        5.7367020452       -2.5474812060
 H        -2.7017853443        4.1783552768       -2.8587413125
 H        -6.4811468092        2.3360464395       -3.7607962205
 H        -5.4042520291        2.1580296665       -2.3663476355
 H        -6.5545017543       -0.1221380951       -2.3298219838
 H        -5.8101670631       -0.5242457575       -3.8107510188
 H        -8.8729650254       -0.7404439901       -1.9137334152
 H       -10.0405680304       -2.1237544701       -1.8571372165
 H       -11.1734161827       -0.4494098140       -0.7490145842
 H       -11.6785756648       -0.4692333074       -2.4017208282
 H       -12.1780356639        4.9715558336        0.4375543703
 H       -12.1806517681        4.9281024301       -1.3443563411
 H        -9.6292602032        4.0483624380       -1.1686917200
 H        -9.8550996477        3.8317790961        0.6302313109
 H        -9.8453624395        6.7931606529        2.4057056948
 H        -8.5200323691        7.3256410399        3.4065870427
 H        -9.9931878358        6.1978963767        5.0920918152
 H        -8.7598276463        5.1797184381        4.7398369807
 H       -12.5712189089        5.1009734806        6.7060887041
 H       -13.9007847524        3.6659157583        6.6203387891
 H       -14.6797961277        6.1456284654        6.1944896895
 H       -15.0493624916        5.1395456380        4.7044939438
 H       -14.8891875427        8.9251552006        1.3825923041
 H       -16.1923074777        8.0223879666        1.9669989559
 H       -15.3134995379        7.2852615679        0.5788108729
 H       -16.0993354463        8.9623501092        3.8088802544
 H       -15.1210939612        9.3239236398        5.1058629339
 H       -16.0520891660        7.7252079907        5.0538191232
 H       -12.2794650422        8.5482929592        2.9060351711
 H       -12.6993250972        9.2883311767        4.5861049806
 H       -13.4832225527        9.8251304292        3.0598455313
 H        -9.5272936744        2.4040474694        4.0478117416
 H       -11.0800077925        1.8502236262        3.3703545090
 H       -10.6740743159        1.4138903085        4.9548804265
 H        -9.3074777394        2.9945185797        6.2321054745
 H       -10.7578433591        2.9454702435        7.0615704636
 H       -10.3504946968        4.6254315670        6.5539192504
 H        -6.2523051930        5.2352994266        0.2764238114
 H        -7.0674241099        5.0393085681       -1.2911549797
 H        -7.3611623033        3.9864869797        0.3029697009
 H        -8.2319137906        8.1918529602        0.7513261200
 H        -7.2948538984        7.7358835614       -0.6312219769
 H        -6.6753242441        7.5171867362        1.0820015147
 H       -12.3498109805        2.5041692270       -4.0246380564
 H       -11.3440805926        3.6524421642       -3.1746729100
 H       -13.1927240450        3.7137937323       -3.1405324686
 H       -13.9455817099        1.0297456048       -3.0544315329
 H       -14.3623585872        1.9841008586       -1.7738683389
 H       -13.6041767120        0.5284378469       -1.4219440091
 H        -7.9783462937       -1.1474464812       -6.6426143774
 H        -8.7535781612        0.3331104800       -5.9885341756
 H        -9.7601209923       -1.0663744827       -6.3612612722
 H        -6.6357412307       -2.5369374340       -4.6868744472
 H        -8.0757500108       -3.1529019563       -4.0318632759
 H        -7.1140902680       -2.0166503924       -3.2452739191
 H        -5.2337826746        2.1185370794       -6.5191447307
 H        -4.8864412739        3.8723329454       -6.8049239551
 H        -6.2652647043        3.3918576118       -5.7019751385
 H        -2.1067690629        3.2845952917       -4.6058440731
 H        -2.8320020350        4.3398382778       -5.8992682562
 H        -2.6304597358        2.5125315317       -6.2312293188
 Na      -13.1558409117        3.8825871110        2.2025824623
