117

 C        -3.6492050960        3.7390766952       -2.4494029410
 C        -4.6392556755        3.8653415487       -3.6171900577
 O        -5.4882327560        4.7310405500       -3.7204194877
 C        -4.5911044872        2.6888035862       -4.6669399351
 C        -4.5995674252        1.3587596748       -3.7752923191
 O        -3.7076241379        0.5690847354       -3.7417762957
 C        -5.8008623355        1.3092074509       -2.6819981263
 C        -6.6011366245        0.0281462231       -2.6612529738
 C        -7.7991253800        0.1239255453       -3.8126601283
 O        -7.7801691493        1.0251718827       -4.6026050136
 C        -8.7535997980       -1.3945747351       -3.9086073124
 C       -10.2324830758       -1.0548063425       -3.5741401595
 O       -11.0333000396       -0.9146541466       -4.4777589889
 C       -10.6147232511       -0.9673726158       -1.9693963405
 C       -11.7861728322        0.0464146444       -1.6837590797
 C       -11.2466397867        1.4975937562       -1.8675202704
 O       -10.1212351331        1.9776205218       -1.7574008453
 C       -12.4021104748        2.5720796277       -2.1826200281
 C       -12.3057287803        3.3941499294       -0.9156914061
 O       -12.8653780437        2.9353089593        0.1016758926
 C       -11.7764634642        4.7798468470       -0.9161134391
 C       -10.2445375560        4.8702522055       -0.6988735513
 C        -9.7127953354        6.1103325146        0.0831893703
 O       -10.4029999578        6.9748863713        0.5482858035
 C        -8.1981359644        6.1861383558        0.2677017161
 C        -7.8748039809        5.7064035669        1.7669343860
 O        -7.1879106618        4.7438623090        1.9087680106
 C        -8.5308471103        6.5488260675        2.8401061625
 C        -9.0425809624        5.8340588666        4.0865595215
 C       -10.2342912948        4.9057219843        3.8622684435
 O       -10.8458631689        4.8011539829        2.7696041837
 C       -10.6975115817        4.0223838920        5.0037671215
 C       -12.3071293386        4.0327676169        4.9808552636
 O       -13.1015094146        3.3782014615        4.2525312236
 C       -12.9668037723        5.0514778970        5.9282402396
 C       -14.0198023397        5.9564423879        5.2259744048
 C       -13.2360614182        6.7668732643        4.2582988689
 O       -11.9939684967        6.7995468899        4.3648650313
 C       -13.9987119568        7.7340672491        3.3041343068
 C       -14.5842041217        6.8326292175        2.1798056787
 O       -14.7131267481        5.6897812947        2.4738905456
 C       -14.8087601824        7.3695268838        0.7422998190
 C       -15.1511787122        8.3991053485        4.1575740652
 C       -13.0357745790        8.8520262039        2.7379581941
 C       -10.2214663618        2.5599768874        4.4863187444
 C       -10.0895908412        4.1804046376        6.3923474431
 C        -7.3549791046        5.1905625704       -0.6014972319
 C        -7.7195655238        7.6648646067        0.0905194958
 C       -12.0093447181        3.1934333091       -3.5032245091
 C       -13.8143068725        2.0430449976       -2.2857570892
 C        -8.6419746765       -1.7855555277       -5.4171080379
 C        -8.2212307578       -2.4732569454       -2.9463169237
 C        -5.7784070283        2.7075390037       -5.6505135797
 C        -3.2628027928        2.8364478048       -5.4934867348
 H        -3.9665593401        3.6036020159       -1.3419070457
 H        -3.0836824064        4.7672436265       -2.5156512157
 H        -2.8463314490        3.0698864030       -2.6135027804
 H        -6.3000155905        2.3093090814       -2.6824850786
 H        -5.1992789662        1.2830236832       -1.7709431579
 H        -6.9629767408       -0.1973370037       -1.6307539311
 H        -5.9634886070       -0.7376931558       -3.0255978805
 H        -9.6923627918       -0.7533218260       -1.3877941966
 H       -11.0036689465       -1.9751353129       -1.8120518825
 H       -11.9903981192       -0.1166023603       -0.7406877189
 H       -12.4851185131       -0.2304671423       -2.4017273676
 H       -12.1893576533        5.2034115085        0.0050740839
 H       -12.0435458691        5.1961321931       -1.9319721871
 H        -9.5248862000        4.8827986631       -1.5728265169
 H       -10.0656507043        3.9626329077       -0.0906669910
 H        -9.3182973613        7.2541713418        2.4607360394
 H        -7.8271403032        7.2217467232        3.0941703302
 H        -9.3711335188        6.6216075561        4.7996605078
 H        -8.3030594653        5.3686976895        4.7529643049
 H       -12.1108494985        5.5875229472        6.5064688679
 H       -13.5364893560        4.5824026765        6.7384089533
 H       -14.4648704687        6.7426669324        5.9422482573
 H       -14.8365043140        5.4629189616        4.7381095331
 H       -15.2488183623        8.3615073628        0.7831635116
 H       -15.4184111351        6.7189280492        0.0863994673
 H       -13.7325045215        7.4489554808        0.5299291789
 H       -15.5532027903        9.2995969089        3.7379233994
 H       -14.7866651706        8.5938871575        5.1965958525
 H       -16.1378933232        7.7752546794        4.0961517096
 H       -12.0870995909        8.3769452633        2.4351591453
 H       -12.7798879596        9.5149424168        3.4768801388
 H       -13.6126233289        9.4658806518        2.0498835774
 H        -9.1772041770        2.4457358393        4.2467092327
 H       -10.5544429978        2.4920959831        3.4474770545
 H       -10.6726554566        1.7432808817        5.0688031440
 H        -9.0758381439        3.8231397286        6.2950554579
 H       -10.6357089895        3.3313299872        6.9123106186
 H       -10.2182011553        5.1834454335        6.9094356092
 H        -6.2749471352        5.5653846033       -0.6265829663
 H        -7.8164811275        5.2273552088       -1.5608990760
 H        -7.4298646470        4.1479438894       -0.2349089615
 H        -8.1694552887        8.3262652857        0.8782364183
 H        -8.1125507033        8.0010930698       -0.8547287784
 H        -6.6470477597        7.8185423678        0.0694035985
 H       -12.1426997895        2.4838179136       -4.3548341536
 H       -10.8457073774        3.3943292349       -3.5631786018
 H       -12.5363073754        4.0863163448       -3.7435750741
 H       -13.8246246628        1.4244509347       -3.1277365603
 H       -14.5038145811        2.8170426719       -2.5995615677
 H       -14.3038060654        1.4330065421       -1.5515696524
 H        -7.5972635691       -2.1498492895       -5.5535605302
 H        -8.7001336519       -0.8653821290       -5.9358036880
 H        -9.4357477494       -2.4874232572       -5.6852914255
 H        -7.4195804466       -2.9252639445       -3.3767761706
 H        -8.9217810434       -3.2666145024       -2.7665192567
 H        -7.9745698718       -2.0916465419       -1.9792798395
 H        -5.6252973413        1.9516853006       -6.4214079527
 H        -5.6932859103        3.7176232015       -6.1124589017
 H        -6.6827966986        2.7554459082       -5.0539740715
 H        -2.5531848526        3.2762092904       -4.7459488408
 H        -3.3878591792        3.4458855027       -6.4014480774
 H        -3.0469789409        1.8382925558       -5.8269566466
 Na      -12.8613361166        3.8709500931        2.0443815529
