117

 C        -3.4000626148        3.8647088120       -2.4452321039
 C        -4.6661646353        3.6876303054       -3.3334011387
 O        -5.5564554629        4.5406439132       -3.2064582815
 C        -4.5836222169        2.5821423069       -4.4760299344
 C        -4.7117478776        1.2104503685       -3.6902515129
 O        -3.9034679646        0.2332881463       -3.6383258459
 C        -5.8965038819        1.2023876197       -2.6235541477
 C        -6.7918988316       -0.0621668514       -2.5658534986
 C        -7.8438253465       -0.1770103839       -3.6762030929
 O        -7.9193889108        0.5349970013       -4.6489240533
 C        -8.7799833183       -1.5511587862       -3.6615969729
 C       -10.1563262162       -0.8839561327       -3.5696238642
 O       -11.0953378136       -0.7134312668       -4.3796859621
 C       -10.6420341020       -0.8952034862       -2.0666173399
 C       -11.8911882139        0.0171506384       -1.8695019486
 C       -11.4173194126        1.4241666170       -1.9010711575
 O       -10.2908047113        1.7501728417       -1.6467955296
 C       -12.4945638682        2.7037248996       -2.3539417842
 C       -12.5100976438        3.6051684389       -1.1742745771
 O       -13.0433743897        3.2665298400       -0.1340539081
 C       -11.8688990891        5.0335967760       -1.0305429317
 C       -10.3474624641        4.8819265550       -0.9609475603
 C        -9.7500699436        6.0705315317       -0.0993473285
 O       -10.4883771699        6.7686117058        0.5637364424
 C        -8.0469635396        6.2695131100        0.1591578664
 C        -7.8900446820        5.8140398534        1.6608234314
 O        -7.2563146238        4.8080894990        1.9948586189
 C        -8.4002583967        6.6749856936        2.8368616871
 C        -8.6797486553        5.7391422592        3.9921315577
 C        -9.9873809501        5.0322782935        3.8619465287
 O       -10.6188748180        5.0525419070        2.8234989100
 C       -10.4712227021        4.0795302302        5.0450292374
 C       -12.1099775576        4.2419888029        5.1455827688
 O       -12.8173904498        3.7815970555        4.2815516623
 C       -12.7822472840        5.1054885236        6.1270468410
 C       -13.8339296706        5.9595153115        5.3529601802
 C       -13.1907937643        6.8613645904        4.2007439730
 O       -11.9962693941        6.8043895719        4.0730135723
 C       -14.0690302440        7.7144030818        3.1718928125
 C       -14.4850367684        6.6123711130        2.0283473538
 O       -14.7116482594        5.3588357968        2.1425616066
 C       -14.6472457826        7.1574276583        0.5825676752
 C       -15.2518827931        8.4969759773        3.8077876491
 C       -13.0185195005        8.7078333792        2.4760976928
 C       -10.4036129213        2.5603165278        4.6482109511
 C        -9.8002443762        4.4074028280        6.4948835797
 C        -7.3063212493        5.5066375113       -0.9255682345
 C        -7.7695910621        7.8022968935       -0.0025947200
 C       -11.9189723905        3.4706453574       -3.5677785339
 C       -13.8619597247        2.0968291141       -2.7412595696
 C        -8.6869937891       -2.2616091722       -5.1012146264
 C        -8.4607675148       -2.6095762534       -2.5135757600
 C        -5.9417000970        2.5579698532       -5.1957195865
 C        -3.2463024512        2.5568988694       -5.2849224224
 H        -3.7591042500        4.1408480805       -1.4614359828
 H        -2.6762276919        4.5034706875       -2.6361012500
 H        -2.8932688599        2.9087805209       -2.2896834221
 H        -6.4339275194        2.0893463187       -2.7339201810
 H        -5.2896186492        1.4128197795       -1.7381819898
 H        -7.4180843843       -0.0335530668       -1.6637230853
 H        -6.2704073085       -1.0754950508       -2.6958146508
 H        -9.7860447666       -0.5059390493       -1.5516897666
 H       -10.8755706184       -1.9193264471       -1.8388626743
 H       -12.2705921129       -0.2580085879       -0.7240103734
 H       -12.4988825137       -0.3581654401       -2.7069271938
 H       -12.1860800579        5.4065498102       -0.0598755153
 H       -11.9347691162        5.6742748635       -1.8814144423
 H        -9.7956820998        4.8211386498       -1.8490392057
 H       -10.2096315397        4.0537493435       -0.3097736578
 H        -9.2141014357        7.2607780431        2.5288073693
 H        -7.5973500969        7.5048725075        3.1554372983
 H        -8.4169849355        6.0928309700        4.9702796099
 H        -7.9864056383        4.9138245497        3.9500967181
 H       -12.0923229917        5.6990371234        6.6757545200
 H       -13.3589194371        4.5916168754        6.8978185711
 H       -14.2470263634        6.6283382972        6.0437008229
 H       -14.6974958870        5.4209848629        4.8997635329
 H       -15.6402276485        7.6233080235        0.5952026166
 H       -14.7100327027        6.2753175405       -0.0245633626
 H       -13.9056103659        7.8874820549        0.3613383579
 H       -15.9399671638        8.7417236730        3.0062835878
 H       -14.8538909413        9.3613249976        4.3153402043
 H       -15.8226659801        7.9554727274        4.5139800840
 H       -12.2240256114        8.1268122491        2.0080352863
 H       -12.3524266255        9.2423371081        3.2623716953
 H       -13.5332430872        9.4153251913        1.8910907111
 H        -9.4376626964        2.1877631657        5.0257809407
 H       -10.2760647973        2.2113958054        3.6363609547
 H       -11.1703176718        2.0993866289        5.3010907290
 H        -8.6774323641        4.2451955290        6.4331346591
 H       -10.3442237967        3.9150805509        7.2841504433
 H        -9.8780143529        5.5173361310        6.5439484462
 H        -6.3371107733        5.5104793480       -0.5785366644
 H        -7.3535191527        6.0338657993       -1.8900392273
 H        -7.7053397885        4.5115855512       -1.0135754873
 H        -8.3723818305        8.4429147268        0.6720714379
 H        -7.6790845894        8.1788363436       -1.0620533146
 H        -6.7221068820        7.8734037976        0.3895786328
 H       -11.8126450265        2.8558919645       -4.4332381706
 H       -11.0440859653        4.0150530144       -3.4835491551
 H       -12.7152342989        4.2111486031       -3.8225855755
 H       -13.9072758836        1.2602381671       -3.4966882410
 H       -14.6212751258        2.8441554952       -2.9703040367
 H       -14.3890199772        1.6733794204       -1.8734324114
 H        -7.7493074934       -1.8719811029       -5.4613006210
 H        -9.5433686331       -1.8857047371       -5.8001221963
 H        -8.7672463482       -3.3781860767       -4.8803612557
 H        -7.3585477472       -3.0254540221       -2.7537296072
 H        -9.1500180929       -3.3923196413       -2.1044352398
 H        -8.4110620298       -2.0428643388       -1.5286642108
 H        -6.0692340524        1.5513421518       -5.5371448628
 H        -5.8556673901        3.1852982965       -6.0365701009
 H        -6.6614552258        3.0107056634       -4.5149130249
 H        -2.4053214060        2.8000977803       -4.6377120636
 H        -3.3829353594        3.3731946743       -6.0169145997
 H        -3.2324943492        1.6295546724       -5.8747710383
 Na      -12.8493480604        4.2642889213        2.1224961338
