117

 C        -3.2158495566        3.9266663988       -2.5404467403
 C        -4.5080676580        3.5949955855       -3.0630245847
 O        -5.5415982076        4.1493797918       -2.7181571406
 C        -4.6681955205        2.3928846032       -4.1100862980
 C        -5.1049221463        1.0490160549       -3.3918709108
 O        -4.4147915836        0.1521673676       -3.5713191112
 C        -6.2950357371        0.8842258621       -2.4114867668
 C        -6.8385967774       -0.4350657846       -2.4324405423
 C        -7.8366247245       -0.7063804698       -3.6376432319
 O        -8.0542746774        0.0941998164       -4.5283430698
 C        -8.7879788169       -1.9387055230       -3.4280614023
 C       -10.1657277325       -1.0111732574       -3.2401181144
 O       -10.6459108776       -0.5724874663       -4.2408265171
 C       -10.9732891266       -0.7400739235       -1.9056878592
 C       -12.1599867995        0.2757105746       -2.1147638636
 C       -11.6731222558        1.7235163645       -1.9780739469
 O       -10.5233895459        1.9615236515       -1.6197088761
 C       -12.5944000712        2.9020852903       -2.4334892754
 C       -12.5352959588        3.8547124863       -1.1940609457
 O       -13.2201380654        3.5388841770       -0.1998150382
 C       -11.7626521327        5.0256176145       -1.2675803544
 C       -10.1850776220        4.9553020219       -1.0756289562
 C        -9.7767368092        6.1695204392       -0.1379606328
 O       -10.6225118027        6.8096321268        0.4658602786
 C        -8.2362278897        6.3748923126        0.0560256899
 C        -7.8599446521        5.7201378367        1.4447547894
 O        -7.2145524138        4.7174884308        1.4269415314
 C        -8.2181970016        6.5627634220        2.7387179550
 C        -8.6157202425        5.7816472343        4.0167985556
 C        -9.9026767408        4.9950108128        3.8348560741
 O       -10.2491733884        4.8010649266        2.6840103309
 C       -10.3077933168        4.1980909850        5.1420604696
 C       -11.8837836694        4.5101323616        5.2304422195
 O       -12.6031967005        3.9404483492        4.3617512598
 C       -12.7448522323        5.5248409756        6.1384839381
 C       -13.8587264750        6.3221280230        5.3630243653
 C       -13.1910864133        6.9415488665        4.0935684308
 O       -11.9755207594        6.8358207786        4.0806538073
 C       -13.9403134610        7.7051301951        2.8907120748
 C       -14.3651675527        6.4718822811        1.8139573439
 O       -14.7644844315        5.4299285556        2.1746407136
 C       -14.7607571290        6.9883258811        0.4727644096
 C       -15.3774516715        8.1083676850        3.3273088722
 C       -12.9252803032        8.7050877738        2.3051931043
 C       -10.2088842476        2.7240178457        4.9357307690
 C        -9.6139298830        4.6393290058        6.4087757738
 C        -7.3171400520        5.6174939410       -0.9530844915
 C        -8.1190251675        7.9650475113        0.0211867149
 C       -11.7135234012        3.4137539812       -3.6452810378
 C       -14.0281848555        2.5535487007       -2.8616404668
 C        -8.7488805481       -2.7423120362       -4.9008870590
 C        -8.3583938249       -2.8977730173       -2.2231425262
 C        -5.7862592837        2.8154981248       -5.1713394132
 C        -3.3726977297        2.1570775895       -4.9220379287
 H        -3.1457561520        4.8806158779       -2.0276902090
 H        -2.5345446674        4.1074212884       -3.5069535289
 H        -2.6623530225        3.1538345482       -1.9203150501
 H        -7.0136694214        1.7365540014       -2.6438512706
 H        -5.8990132015        1.2125358698       -1.4343046131
 H        -7.4488700581       -0.5673444897       -1.5390683399
 H        -6.1363132832       -1.1878035017       -2.5352995135
 H       -10.4583628025       -0.3951071798       -0.9558339313
 H       -11.4754573515       -1.7555413535       -1.9257407424
 H       -12.7621887494        0.0255729117       -1.3663188556
 H       -12.6043866617        0.0680163825       -3.0923617168
 H       -12.0626446243        5.7052580196       -0.4497485452
 H       -11.7040816436        5.5235976787       -2.2364852791
 H        -9.7141790881        5.3193382804       -2.0544005850
 H        -9.8366907407        3.9268643601       -0.7447450729
 H        -8.9248995998        7.4248217638        2.4702815889
 H        -7.3541045522        7.0499175865        2.9829426975
 H        -8.6986549158        6.5128906412        4.8828776494
 H        -7.7290517628        5.1608753995        4.4396092007
 H       -11.9916945704        6.2684868265        6.5876961133
 H       -13.0628791656        4.9191630473        7.0517448471
 H       -14.0905562634        7.2799493981        5.9667584274
 H       -14.8372104591        5.9757647914        5.1180036262
 H       -15.7976926133        7.3110052549        0.6209183782
 H       -14.7581065900        6.1043691934       -0.1594982169
 H       -14.2305457534        7.9547626628        0.2397521541
 H       -16.0447453423        7.9410518511        2.4103487599
 H       -15.4623855179        9.1475141009        3.6633621482
 H       -15.6305513408        7.5327552759        4.2630544026
 H       -12.0499717268        8.1222400164        1.9556483997
 H       -12.4735931726        9.3599931995        3.0114057573
 H       -13.5338278773        9.2426664769        1.4455531654
 H        -9.2867834025        2.2681297089        4.6227192849
 H       -10.9253514762        2.5479012314        4.0964384651
 H       -10.5036988279        2.2371450843        5.8090546888
 H        -8.5401015437        4.5369100915        6.2577697735
 H       -10.1446315298        3.9861070072        7.1330647242
 H        -9.6431788472        5.6395105433        6.7329410985
 H        -6.3192630045        5.6314789249       -0.4504031202
 H        -7.2404954467        6.0738248616       -1.9182177151
 H        -7.7117671570        4.5963728697       -1.0041913841
 H        -8.9922492892        8.4471900399        0.3125883936
 H        -7.9434878040        8.1326627261       -0.9951300303
 H        -7.2863113260        8.3782007169        0.5288910306
 H       -11.6522911917        2.6996466424       -4.4918500429
 H       -10.7135309396        3.4296723666       -3.2012379938
 H       -11.8700678543        4.3974599091       -4.1037598384
 H       -14.1219576971        1.7148503012       -3.5355828842
 H       -14.6057736873        3.3473747676       -3.3096226153
 H       -14.7213189459        2.3556014826       -2.0393635103
 H        -7.8643425789       -2.4072247458       -5.4671245334
 H        -9.6257252523       -2.3935205331       -5.4028903739
 H        -8.8912216269       -3.7711964772       -4.7032064348
 H        -7.3758479607       -3.0847851097       -2.1037582991
 H        -8.9113964049       -3.8108709116       -2.3799515982
 H        -8.8057516601       -2.7631269840       -1.2927423491
 H        -6.0097116216        1.9112270025       -5.7510899131
 H        -5.2860930715        3.5472254907       -5.8600433686
 H        -6.5670525604        3.2837606449       -4.6028856842
 H        -2.6367669723        1.5360865858       -4.3576029102
 H        -2.9787930527        3.1225513785       -5.1807396625
 H        -3.6205713907        1.5377445680       -5.8460777268
 Na      -12.4397891032        4.5463161786        1.9388592230
