117

 C        -3.1058713163        3.9586326396       -2.6174741167
 C        -4.4185793581        3.3211965275       -2.6868172209
 O        -5.3423559691        3.5327261017       -1.9426512406
 C        -4.6789876115        2.2326094598       -3.8626740642
 C        -5.2998594540        0.8367070365       -3.2689358081
 O        -4.7509167088       -0.1829589183       -3.4663706761
 C        -6.6249052519        0.9512255648       -2.3992970693
 C        -7.3193951756       -0.3684618806       -1.9880582906
 C        -7.8949924284       -1.1601030394       -3.2491333962
 O        -7.5408986075       -0.7525407770       -4.3163700420
 C        -9.0448357544       -2.1432318819       -3.0741106951
 C       -10.2926356692       -1.1116264042       -3.1769006200
 O       -10.6451282393       -0.6834468818       -4.2692746504
 C       -11.2619694438       -0.8088061207       -1.9705326452
 C       -12.2351311027        0.2554600207       -2.3279133607
 C       -11.7246463135        1.6831510210       -1.9865194156
 O       -10.7818121156        1.7560397319       -1.1910582436
 C       -12.5085228468        2.9426285992       -2.5967902113
 C       -12.3832010260        4.0497148137       -1.4482526295
 O       -12.8489601720        3.8613137368       -0.3613575457
 C       -11.7546724384        5.4344931584       -1.6599068396
 C       -10.2950570727        5.2329124788       -1.1627379463
 C        -9.8303824062        6.3098819515       -0.1714297649
 O       -10.4989509431        6.6223337126        0.8201409870
 C        -8.3383373459        6.6019031701       -0.0732786331
 C        -7.9419737985        5.8584177579        1.3127937229
 O        -7.5537310379        4.7544966377        1.4147763539
 C        -8.1114492435        6.7206967104        2.6328637905
 C        -8.2923117861        5.8000615439        3.8463253520
 C        -9.5815209564        4.8974263981        3.7569583363
 O        -9.9334859678        4.4900496006        2.6772330712
 C       -10.3657677270        4.4547424103        5.1955072162
 C       -11.7867561171        4.7883187873        4.9570507200
 O       -12.4437799392        4.1690958527        4.0535611397
 C       -12.4879562134        5.8903644579        5.8730171291
 C       -13.5729811750        6.5662988326        5.0818960355
 C       -13.0532489250        7.1309112479        3.7142859044
 O       -11.9101318336        6.8872882780        3.3496343951
 C       -14.0277011600        7.7240340601        2.7650517172
 C       -14.3806829887        6.3971166748        1.7476107835
 O       -14.1204947794        5.2729572128        2.1247859029
 C       -14.8773357918        6.6599356771        0.3486017860
 C       -15.2582937335        8.2568732407        3.4928921934
 C       -13.3320444512        8.8324031213        1.9284953565
 C       -10.1222180477        2.8583427706        5.1880677254
 C        -9.7251381657        5.0987571058        6.4758769779
 C        -7.4996861156        6.1048039606       -1.3387524256
 C        -7.9802277168        8.1106186279        0.0737624947
 C       -12.0465947134        3.5147035043       -3.9417352869
 C       -14.0022833298        2.5813666351       -2.8248333261
 C        -9.2179859288       -3.0011958582       -4.4617656838
 C        -9.1045414405       -2.9781512591       -1.7346084830
 C        -5.7301299105        2.8743365454       -4.8563886992
 C        -3.3711422552        1.8164635073       -4.7037337491
 H        -3.0665187579        4.9595513337       -2.3559326398
 H        -2.7552548879        3.9178360145       -3.6862424616
 H        -2.3385596960        3.4408990561       -2.0882006270
 H        -7.1483040108        1.8299385070       -2.7537632005
 H        -6.2150425316        1.3042794532       -1.4524346393
 H        -8.1204800689       -0.1112521925       -1.2841057417
 H        -6.5818147416       -1.0941194895       -1.4836659811
 H       -10.7429841577       -0.5755012951       -0.9908552618
 H       -11.8580763579       -1.7133068166       -1.7654152440
 H       -13.1492149474        0.0717035731       -1.7901838730
 H       -12.4044765183        0.1554846208       -3.4765733232
 H       -12.2137437586        6.2492485616       -1.1432959508
 H       -11.6039946986        5.7753770683       -2.7192539658
 H        -9.6425012625        5.1721286423       -2.0356494763
 H       -10.3064468841        4.3379509768       -0.6359148489
 H        -9.1156155211        7.3234844961        2.5827266873
 H        -7.2716923154        7.4053784919        2.6387746097
 H        -8.1970798187        6.4321265714        4.7503252719
 H        -7.5483927011        5.0184291606        3.8406338491
 H       -11.6418779293        6.5170604169        6.2682677207
 H       -12.9875614445        5.3495762987        6.6903811063
 H       -14.0578191635        7.3655172249        5.6683470429
 H       -14.4075778855        5.9385087473        4.8927127514
 H       -15.5831027863        7.4692458891        0.4530875143
 H       -15.1724012486        5.7626800607       -0.1832429070
 H       -14.0325502567        7.2165015352       -0.0464832584
 H       -15.5234131298        9.1778253521        3.0612049809
 H       -15.0949683887        8.4525747530        4.4830715481
 H       -16.0076752333        7.4795188523        3.5214916528
 H       -12.4753776121        8.3664444169        1.3325982580
 H       -12.9920614866        9.5801375999        2.5886594466
 H       -14.0068698213        9.2676048650        1.0600549093
 H        -9.1231050314        2.5160082315        4.8299658631
 H       -10.9054069530        2.5455155661        4.4925010795
 H       -10.2069937582        2.2812567482        6.1256509203
 H        -8.7683722423        4.6539880250        6.6935323075
 H       -10.3668830274        5.1430845033        7.4085678711
 H        -9.3759480667        6.1296740775        6.2540666431
 H        -6.7268401970        6.8918432785       -1.4877888644
 H        -8.1149290721        6.0937208627       -2.1873243183
 H        -7.1119683808        5.0998788463       -1.2223665902
 H        -8.6310992182        8.4737690026        0.9333175324
 H        -8.3904494277        8.6264328246       -0.8292775188
 H        -6.9042111368        8.3739981891        0.2553056002
 H       -12.0493213706        2.6837699565       -4.6170050388
 H       -11.0277225241        3.9807282681       -3.9409910181
 H       -12.6939078976        4.1768773437       -4.3767119053
 H       -14.1398745098        2.0231373516       -3.7465631578
 H       -14.5439545872        3.5029160168       -3.1593299109
 H       -14.6703467282        2.2028242204       -2.0035249152
 H        -8.4883139431       -3.8512309921       -4.2198955022
 H        -8.7201023174       -2.3160129445       -5.1458292660
 H       -10.2682949548       -3.2684372908       -4.7330092537
 H        -8.3801836083       -3.8272866092       -1.7975906845
 H       -10.1888165957       -3.4928433908       -1.5940186139
 H        -8.7143525597       -2.5556474299       -0.7220517496
 H        -5.7859728450        2.0775025022       -5.5633601957
 H        -5.4804522868        3.8509587931       -5.2551365411
 H        -6.6568628989        2.8385935479       -4.3088746529
 H        -2.5003173500        1.6103205265       -4.0450124654
 H        -3.1172470827        2.6674240993       -5.3189148318
 H        -3.4671332766        0.8511797134       -5.1367371784
 Na      -11.9297556301        4.6872739939        1.7599735812
