117

 C        -3.1287261248        3.9557118379       -2.6142326389
 C        -4.4603406179        3.1380266270       -2.6484054889
 O        -5.2059276853        3.3539389014       -1.7244278255
 C        -4.7279140406        2.0808234435       -3.8032360605
 C        -5.3463300153        0.7067999607       -3.1989208909
 O        -4.8887651811       -0.3797331288       -3.3312968443
 C        -6.5739319367        0.9502847145       -2.2490438681
 C        -7.4753561954       -0.2279857026       -2.0278790696
 C        -7.8486204254       -1.1753018831       -3.2191090133
 O        -7.3757012097       -1.1442997963       -4.3640976649
 C        -9.1731553822       -2.0941994122       -2.9647131639
 C       -10.3797417197       -1.1432924441       -3.2341559183
 O       -10.6953562914       -0.7081871968       -4.3071320104
 C       -11.2964677789       -0.7438404763       -1.9738087634
 C       -12.3301099120        0.3076643733       -2.4034465098
 C       -11.8208808782        1.6871876612       -1.9118729543
 O       -10.8821884088        1.8791016993       -1.2061606846
 C       -12.6195110671        2.9286962879       -2.5985909187
 C       -12.3935934370        4.0562021539       -1.5189096894
 O       -12.7790269278        3.7919268422       -0.3822455061
 C       -11.6447565055        5.3882135682       -1.6857321432
 C       -10.0975458154        5.2899714881       -1.2148471985
 C        -9.7610751829        6.3181558519       -0.0765327881
 O       -10.5902413327        6.5220151743        0.7825759935
 C        -8.3350856977        6.8041699080        0.0027982481
 C        -7.9571720383        5.9841795202        1.2764346611
 O        -7.5853808836        4.8067437611        1.1873646546
 C        -8.2188631369        6.6831841771        2.6568573327
 C        -8.1270840543        5.6659018651        3.8158338257
 C        -9.4820672143        4.7865768475        3.7999171991
 O        -9.8538908560        4.4930988532        2.7001903785
 C       -10.1402914586        4.5346476306        5.0680732463
 C       -11.6645172468        4.8457744585        4.8718401430
 O       -12.2513475681        4.1548338456        4.0113320584
 C       -12.4749999152        5.8786989719        5.7477053806
 C       -13.4935713960        6.7165266677        4.9767339998
 C       -12.9769518525        7.2110948815        3.6137765263
 O       -11.8813248254        6.8660074481        3.2498195814
 C       -14.0774953747        7.7357841389        2.6127968895
 C       -14.3447125921        6.5036452424        1.7425273091
 O       -14.1024302131        5.4367818625        2.1497484290
 C       -15.0354470738        6.7073688881        0.3200633293
 C       -15.3844106137        8.1988265878        3.3663430754
 C       -13.4456458259        8.8754875002        1.7425827310
 C       -10.1173019605        2.9599274152        5.3580206171
 C        -9.6350515592        5.1191629263        6.3722725429
 C        -7.4956019203        6.1506269061       -1.2312085902
 C        -8.0405624438        8.3211590171       -0.0044290051
 C       -11.9504569441        3.3437599259       -3.9299894269
 C       -14.0228330849        2.4966581071       -2.6649548059
 C        -9.2232449271       -3.0689462505       -4.1485827599
 C        -9.4402901266       -2.8108143520       -1.7200152522
 C        -5.7232145870        2.7624369414       -4.7191370339
 C        -3.4315102539        1.8520875494       -4.6013727596
 H        -3.2014946408        4.8513152586       -1.9992968996
 H        -2.7962454916        4.3341685249       -3.5824914259
 H        -2.1558695066        3.3252656369       -2.2502985385
 H        -7.1011964828        1.7116920485       -2.9332828817
 H        -6.3598449683        1.5159177660       -1.3198689861
 H        -8.4441982937        0.2521508611       -1.7320857618
 H        -7.2283436231       -0.9320000567       -1.2779149755
 H       -10.6692809272       -0.4597455384       -1.0668622952
 H       -11.9769964184       -1.6147707137       -1.5858433062
 H       -13.2709097048        0.1852034412       -1.9698895722
 H       -12.4066277614        0.2376346110       -3.5092864861
 H       -12.0688210549        6.1864525155       -1.0387570713
 H       -11.7220614859        5.8393862231       -2.6720719279
 H        -9.4154802615        5.4546048477       -2.0718598137
 H       -10.0394013686        4.2693417564       -0.8008546584
 H        -9.1607200873        7.2920393005        2.7952584612
 H        -7.3784176753        7.3381404480        2.6038020455
 H        -8.1477996584        6.3326376653        4.7026864692
 H        -7.1446727250        5.0330651319        3.7815389241
 H       -11.6124130814        6.5131005779        6.0852312670
 H       -13.0020592280        5.3270145460        6.6343833122
 H       -13.8285629504        7.5790420312        5.6378965335
 H       -14.4451623908        6.2815456734        4.7738808775
 H       -15.6705994620        7.5960993117        0.2366772865
 H       -15.4929019336        5.7475712287        0.2576620766
 H       -14.2321026007        6.8598615310       -0.4664851448
 H       -15.9118946454        9.0614737947        2.8241515272
 H       -15.1544237078        8.5914369416        4.3465615563
 H       -15.9291310092        7.3260228509        3.5113340770
 H       -12.8131957712        8.4060442768        0.9622965888
 H       -12.9268893153        9.6615395274        2.4200169060
 H       -14.2396354366        9.3560036026        1.0717619271
 H        -9.1971038992        2.5149690367        5.6313957066
 H       -10.5983028193        2.5734271474        4.4233221429
 H       -10.7850786306        2.6546789331        6.0851124614
 H        -8.6817514031        4.5916414215        6.7628711322
 H       -10.4063857516        4.9799981646        7.1914569846
 H        -9.4015867728        6.1399778293        6.3462351989
 H        -6.4901414046        6.4256748260       -0.9805246115
 H        -7.7251482563        6.3614170030       -2.2559593000
 H        -7.5841238941        5.1191966451       -0.9881589192
 H        -8.7346337788        8.8571448496        0.5800743533
 H        -8.2029302228        8.6652635637       -1.0489365991
 H        -6.9906515496        8.5429376719        0.3467573909
 H       -11.8817946021        2.5032647067       -4.6133820050
 H       -11.0444954123        3.7672737965       -3.8072828764
 H       -12.5743359725        4.0961201244       -4.4866903934
 H       -14.2366302315        1.8002623412       -3.5036112555
 H       -14.6491520974        3.3356927270       -3.0588524703
 H       -14.5439443674        2.2266738556       -1.7350507532
 H        -8.8559689044       -3.9737282537       -3.6664687341
 H        -8.4516349391       -2.6445488359       -4.8027158008
 H       -10.1799745707       -3.1679706149       -4.6448786750
 H        -8.7033418937       -3.6803211507       -1.5232137446
 H       -10.4632570972       -3.2208540563       -1.5973176660
 H        -9.1265367243       -2.1840021954       -0.8540676130
 H        -6.0168325156        2.0732162331       -5.5221662731
 H        -5.2467186490        3.6910537261       -5.0350274787
 H        -6.5641140917        2.9392203563       -4.1021744302
 H        -2.5356340597        1.7207335125       -4.0612925842
 H        -3.3386522350        2.7747579280       -5.0746200668
 H        -3.4269836072        0.9029374029       -5.2204806910
 Na      -11.7742474142        4.7911217851        1.6868662554
