117

 C        -3.2435557130        3.8497243538       -2.5943999801
 C        -4.3775453568        2.9107881302       -2.3329667676
 O        -5.0205095885        2.9381529202       -1.3198996602
 C        -4.7092577544        1.9373265273       -3.6139061784
 C        -5.4663914906        0.6464935715       -2.9997523615
 O        -4.8942800389       -0.3859070426       -3.0462477122
 C        -6.8418600662        0.8719639481       -2.2738031933
 C        -7.8436655897       -0.3070189751       -1.9590797275
 C        -7.9968704855       -1.4474106727       -3.1005062408
 O        -7.1699132772       -1.7051572593       -3.8685299368
 C        -9.4512661289       -2.1323450743       -2.9855464125
 C       -10.6092440273       -1.1380283833       -3.3557610740
 O       -10.8133475095       -0.6631093027       -4.4802323939
 C       -11.3904360393       -0.7016942311       -2.1655059185
 C       -12.4950302231        0.4123855461       -2.3594561563
 C       -11.9513294682        1.6911476918       -1.8601723866
 O       -10.8746803187        1.8977820048       -1.2857574551
 C       -12.6892549723        2.9455684520       -2.4125662540
 C       -12.3425598834        4.0688743266       -1.3745741122
 O       -12.6861755618        3.8233401249       -0.2478410976
 C       -11.6137711174        5.3052565149       -1.7797572330
 C       -10.1045632294        5.2864242314       -1.4339155100
 C        -9.7038949089        6.3878527382       -0.4734056064
 O       -10.5429942894        6.7933923630        0.3282540215
 C        -8.1970314134        6.8245958817       -0.1343989390
 C        -7.9706724155        6.0169437989        1.2485303492
 O        -7.3714735361        5.0106195142        1.2125805228
 C        -8.0130780814        6.7062542347        2.6607291567
 C        -7.8921841032        5.5902442801        3.7384861969
 C        -9.0572006454        4.7124504248        3.8145041787
 O        -9.5686548534        4.1770691647        2.7888403623
 C       -10.0156488819        4.4641977892        5.1557578863
 C       -11.5625834081        4.8159355325        4.7882768748
 O       -12.0653322184        4.3316334223        3.8498430551
 C       -12.2416174747        6.0207532976        5.6785772877
 C       -13.3283048609        6.8305828917        4.8818781475
 C       -12.9365784805        7.4336150916        3.4180265966
 O       -11.8158907842        7.2331121129        2.9831399034
 C       -14.0926174694        7.8108734732        2.3630934632
 C       -14.5203937195        6.5653223907        1.4652199689
 O       -14.2216361787        5.4036537521        1.8870265543
 C       -15.4749716714        6.7469228390        0.2994553665
 C       -15.4047139745        8.2733503259        3.0037372442
 C       -13.5828112267        9.0211188221        1.6200941408
 C       -10.0358830815        2.9595200480        5.4980534237
 C        -9.4171797467        5.3378429202        6.3196860658
 C        -7.0504666968        6.5656162549       -1.1647785675
 C        -8.4540561074        8.4189450981        0.0237179905
 C       -12.0818193709        3.1210384000       -3.7982784258
 C       -14.2037305076        2.9000660904       -2.5743413840
 C        -9.3376858958       -3.5287465105       -3.8322827712
 C        -9.2990188066       -2.5001931108       -1.4566359403
 C        -5.8106675764        2.5817198858       -4.4665470307
 C        -3.5181390610        1.3603369401       -4.4304305923
 H        -2.7933049242        4.2800735227       -1.7548732400
 H        -3.4029066250        4.7142199869       -3.3076556464
 H        -2.5174127478        3.2625859163       -3.0431250521
 H        -7.2317160255        1.7557170386       -2.6404536450
 H        -6.4135113269        1.1238770720       -1.2851770741
 H        -8.7900674777        0.1706045062       -1.9324271061
 H        -7.7326581737       -0.7931684375       -0.9433100603
 H       -10.6654697370       -0.5249927582       -1.3963806165
 H       -11.8836103683       -1.5276742990       -1.7323606116
 H       -13.5532651429        0.3609591266       -1.8385014128
 H       -12.7693931164        0.5780882056       -3.4584384654
 H       -11.9872931581        6.2033994263       -1.2814220669
 H       -11.7872681627        5.6049253146       -2.8553531548
 H        -9.4835781547        5.3919782580       -2.3592568080
 H        -9.8794587205        4.2998999300       -0.9570542172
 H        -8.9362483920        7.2562493858        2.7249086463
 H        -7.1287846693        7.3731227210        2.5926908544
 H        -7.5472373899        5.8897725956        4.7394538192
 H        -7.1804262377        5.0227793314        3.2062523288
 H       -11.4328894991        6.6348748088        6.0103628997
 H       -12.7211642754        5.5120527991        6.4403453553
 H       -13.7556350610        7.6029836276        5.5078707233
 H       -14.2684446252        6.2574561243        4.6062499603
 H       -15.6523763285        7.8324992285        0.3252731958
 H       -16.3930103761        6.1176002172        0.3862493989
 H       -14.9611495564        6.4878164416       -0.6148707228
 H       -16.2299382239        8.0147689497        2.3445325117
 H       -15.4351087377        9.3706252525        3.0829807613
 H       -15.5717308584        7.7416305915        4.0378626247
 H       -12.7450900030        8.7236510981        1.0285868972
 H       -13.4207872888        9.7915142973        2.2552770272
 H       -14.2284174970        9.3831197544        0.8193665242
 H        -9.3270438475        2.8678509193        6.3317819018
 H        -9.9001023323        2.3001319562        4.6990144837
 H       -11.0312740418        2.5449386427        5.8374131458
 H        -8.3814028179        5.1859942887        6.5052736659
 H        -9.7070056939        5.0251795756        7.3447229550
 H        -9.7236360701        6.4528255952        6.2267206653
 H        -6.1422330601        6.2129897607       -0.6115758178
 H        -6.8446559718        7.5452958923       -1.6142592423
 H        -7.3139102035        5.8149584417       -1.9468338429
 H        -9.3506377299        8.4801916304        0.6660526435
 H        -8.6531979576        9.0676051138       -0.7681888346
 H        -7.6756582160        8.7686347092        0.6105053414
 H       -12.3431755630        2.3329203757       -4.5385718728
 H       -10.8928156387        3.2443364917       -3.8741058036
 H       -12.4995377835        4.0561222406       -4.1474171554
 H       -14.6096063632        2.1845557644       -3.2272146180
 H       -14.5456551401        3.8387507724       -2.9778475000
 H       -14.7122743014        2.7794405830       -1.6353001836
 H        -9.3863506980       -4.2920967941       -3.0449951595
 H        -8.5562748485       -3.4996419970       -4.5926033117
 H       -10.3798947438       -3.5730938073       -4.2452826214
 H        -8.3999095311       -2.8639341253       -1.2113802872
 H        -9.9175411419       -3.3556752100       -1.2620863057
 H        -9.4492763903       -1.6549543892       -0.8747131774
 H        -6.4630856849        1.8811672635       -4.9743199901
 H        -5.1515854681        3.2375311196       -5.0439608016
 H        -6.4267420609        3.2368692946       -3.8007914424
 H        -2.8373615847        0.7402843666       -3.7709254790
 H        -2.8116648183        2.2317623879       -4.6992250401
 H        -3.7665242343        0.7487530475       -5.2670840189
 Na      -11.8373614446        4.8954236160        1.5566534917
