117

 C        -3.2473112496        3.7956583479       -2.5438974188
 C        -4.3196623835        2.7924832574       -2.3316179093
 O        -4.8574555395        2.7613631136       -1.2301293021
 C        -4.8282562435        1.8348810762       -3.4856615540
 C        -5.5640315948        0.4656882693       -2.7876421230
 O        -4.9356293646       -0.5293452813       -2.7900299355
 C        -6.9002413804        0.8653649011       -2.2466002258
 C        -7.7967283099       -0.3157487387       -2.0259099541
 C        -8.0086598550       -1.4396441399       -3.0524458297
 O        -7.1464605838       -1.9788019233       -3.7508534288
 C        -9.4237763996       -2.1890465898       -2.8486569579
 C       -10.5323412176       -1.2339416875       -3.2960273332
 O       -10.7538282624       -0.8461028930       -4.4573585218
 C       -11.5600795944       -0.8684047530       -2.0575353582
 C       -12.5959261658        0.2098440726       -2.3687729647
 C       -11.9903912601        1.6792590259       -1.8671995573
 O       -10.9149308000        1.6951188376       -1.3462728806
 C       -12.7454541434        3.1029297362       -2.3822884222
 C       -12.3268284693        4.1426513006       -1.3778758400
 O       -12.5985146836        3.9785847910       -0.2141951263
 C       -11.5669331006        5.4095259827       -1.8264144209
 C        -9.9745323542        5.2341185323       -1.5946457211
 C        -9.5874978076        6.3538060578       -0.5128969855
 O       -10.6026872059        6.8468622822        0.0495859057
 C        -8.2354281151        6.9273577124       -0.1787018231
 C        -7.7358079066        6.0733538623        1.2371775219
 O        -7.2316721193        4.9870458068        1.1597954565
 C        -7.9582043023        6.6627040746        2.6479407616
 C        -7.9179388560        5.5953263726        3.7615482973
 C        -9.1670184179        4.6754026686        3.7095288016
 O        -9.5264557741        4.0337983414        2.7411186896
 C        -9.9594909809        4.5666426020        5.1520353354
 C       -11.3467321493        5.1271154228        4.7446751665
 O       -11.9373515726        4.4687753887        3.8643208893
 C       -12.1700429398        6.2061087108        5.4614252962
 C       -13.3294054150        6.7365873470        4.6394304991
 C       -12.9866627921        7.3358996410        3.2503949758
 O       -11.8579416289        7.4579378035        2.8885352614
 C       -14.1199981138        7.8351912728        2.3667818597
 C       -14.5421899411        6.5498628808        1.4363018188
 O       -14.2533910519        5.4091224183        1.5777139143
 C       -15.6133643430        6.7974431755        0.3483225391
 C       -15.4591752888        8.3257744759        3.1724930484
 C       -13.4860498750        8.9671291539        1.4715369670
 C        -9.8972250861        3.0301237089        5.5285662664
 C        -9.3557541181        5.3591603987        6.2520286158
 C        -7.1464259766        6.8321760895       -1.1854143428
 C        -8.4692651453        8.3801233425        0.2091717315
 C       -12.2069140937        3.3271700292       -3.8419845213
 C       -14.2922114767        3.0842355082       -2.5048066024
 C        -9.4927472444       -3.4114381932       -3.7174268323
 C        -9.3944492123       -2.6643797545       -1.3518534337
 C        -5.7328491068        2.6925270328       -4.4743646543
 C        -3.7338582258        1.2152542460       -4.2265890666
 H        -2.8325282036        4.2115949363       -1.6984610647
 H        -3.7306625019        4.5583446862       -3.0671828210
 H        -2.3612237186        3.5372594910       -3.1789355264
 H        -7.1763847393        1.4469460639       -3.1091827757
 H        -6.8256465060        1.5008026171       -1.4318886426
 H        -8.7965817916        0.0757670443       -1.7709266445
 H        -7.5491664485       -0.9933749826       -1.1554953884
 H       -10.9624025682       -0.7253638076       -1.1899148098
 H       -12.1401328538       -1.6702388620       -1.6733036234
 H       -13.5146393508        0.0739787744       -1.8789031178
 H       -12.9209999168        0.3397315891       -3.5403137106
 H       -11.9093425642        6.2756775500       -1.2771001923
 H       -11.8014053858        5.7391853903       -2.8674304907
 H        -9.4836578837        5.1922354214       -2.5879228333
 H        -9.8604173837        4.2895097091       -1.1720375674
 H        -9.0718877423        7.0818276027        2.5605306677
 H        -7.2045462811        7.4079369272        2.8227594512
 H        -7.8277046440        6.0973991143        4.6911137095
 H        -7.0825780825        5.0187511422        3.4954309606
 H       -11.4648326019        6.9900349552        5.7383316963
 H       -12.6104938134        5.6352784038        6.2426373112
 H       -13.6501561239        7.6587104249        5.2104497920
 H       -14.2190630503        6.2014800232        4.5461975543
 H       -15.6092377024        7.8477730487        0.1588780412
 H       -16.5829810890        6.4260391784        0.6228906519
 H       -15.2302506295        6.2084921653       -0.5022948397
 H       -16.3583542223        7.9092440667        2.6222671904
 H       -15.4977701399        9.3428329267        2.9972127841
 H       -15.5299853730        8.0998726901        4.1837267770
 H       -12.5089865140        8.6975402032        1.1745465684
 H       -13.5233087221        9.9604308990        1.9812216572
 H       -13.9448710988        9.2056998115        0.4889883972
 H        -9.0889641445        2.8605160854        6.2837792341
 H        -9.8858985881        2.3686763825        4.5763400406
 H       -10.8286920502        2.6405391044        5.9106234370
 H        -8.5831346088        4.7855103914        6.7246681322
 H        -9.9882322608        5.1956584217        7.1829173280
 H        -9.2737240842        6.3893320517        6.1628467666
 H        -6.2353082182        6.4042760752       -0.6473418767
 H        -6.9116797692        7.8513220396       -1.4676874025
 H        -7.3633122067        6.1975462814       -2.0673926899
 H        -9.2357389425        8.5822652245        0.9193314010
 H        -8.8701473273        8.9748611743       -0.6546279950
 H        -7.4774790851        8.8337709044        0.5247185021
 H       -12.5391237789        2.4757280299       -4.4929794358
 H       -11.1710219655        3.1619817577       -3.8338744511
 H       -12.3998659622        4.3364667647       -4.3214719884
 H       -14.6716662301        2.3386430331       -3.1828191137
 H       -14.5572200202        4.0552117756       -2.9322388547
 H       -14.8704753686        2.9402002701       -1.5935020881
 H        -9.4860586646       -4.3470929839       -3.0683479804
 H        -8.7285976929       -3.1990067444       -4.5257085670
 H       -10.4654956663       -3.3803942251       -4.1502047634
 H        -8.5576239654       -3.3652904126       -1.0246579854
 H       -10.2622971648       -3.3519805346       -1.3411572587
 H        -9.4867774276       -1.7594976081       -0.7335986708
 H        -6.4129163393        1.9526763982       -4.8956294437
 H        -5.0542697487        3.2447282240       -5.1595756385
 H        -6.3650531708        3.3697326004       -3.9054196382
 H        -3.0622686411        0.5560273693       -3.5882078666
 H        -3.0656855656        2.0272001308       -4.5026343042
 H        -4.0113779490        0.6598925688       -5.2199820235
 Na      -11.8017345918        5.0247383575        1.6545313714
