117

 C        -2.9808642585        2.8801259393       -2.3179821221
 C        -3.8289169379        1.7516430653       -1.7125051329
 O        -3.9380319389        1.5702999755       -0.4848389981
 C        -4.8704131982        0.8190529055       -2.5029949027
 C        -6.0435998636        0.1986047646       -1.5317914633
 O        -5.8364167554       -0.1134507333       -0.3963206476
 C        -7.1876285145       -0.4027656508       -2.2861200182
 C        -8.1882987205       -1.1613577084       -1.4008330870
 C        -8.7499705573       -2.3691233749       -2.1325892573
 O        -7.9068980014       -2.9839484595       -2.8211079210
 C       -10.3318019409       -2.6099653784       -2.1291552014
 C       -11.1363345775       -1.4266393061       -2.8050777605
 O       -10.7232908678       -1.0041352271       -3.9204369445
 C       -12.5130843109       -1.0297092448       -2.2211425552
 C       -12.9486665464        0.3699700505       -2.5778546265
 C       -11.8965785238        1.4260944016       -2.0553368943
 O       -10.7302937056        1.2078437642       -1.8627731381
 C       -12.4130065772        2.8622379245       -2.0571100276
 C       -11.2294344073        3.7703368032       -1.3260604935
 O       -11.2309616347        3.7503705057       -0.1344042626
 C       -10.1781663235        4.5000051782       -2.1023056045
 C        -9.0695848235        5.0486007109       -1.2272313659
 C        -9.3035598424        6.4861490918       -0.7373310236
 O       -10.3919382617        6.9873120704       -0.5530145039
 C        -8.0545560822        7.4701192891       -0.3420151565
 C        -7.1218683954        6.6038222143        0.5115494247
 O        -6.6459532617        5.6290549742       -0.1299551990
 C        -6.9565671065        6.7266633163        2.0046435604
 C        -7.5688224659        5.4091588599        2.6830874553
 C        -9.1109287752        5.3486316741        2.7968379209
 O        -9.6554073904        5.4805924501        1.6869992943
 C        -9.8742036166        5.2440063450        4.2185652314
 C       -11.4830668437        5.6454066927        4.0390885375
 O       -12.1763047590        5.3367411680        3.1369958561
 C       -11.9906756472        6.8227505466        5.0257750949
 C       -13.2612504551        7.5627339762        4.5468435793
 C       -13.1321664672        7.8884862538        3.1097195609
 O       -12.0228285794        7.9569437221        2.6074693287
 C       -14.2971571173        8.2693932607        2.0347372996
 C       -14.7725055426        6.8575585443        1.3519533508
 O       -14.1464972494        6.3773457727        0.4321736489
 C       -16.1025426841        6.2959617356        2.0159045276
 C       -15.3756716339        9.1652965093        2.4963768035
 C       -13.6424919454        9.0422653930        0.9050972521
 C       -10.0785710588        3.7116483506        4.6419099110
 C        -9.0956763065        6.0356732180        5.1784034875
 C        -7.4467689612        7.7167556847       -1.6997534401
 C        -8.5404815436        8.8783209396        0.2690891830
 C       -12.5770244323        3.3163879285       -3.5970205281
 C       -13.7281586534        3.1651467449       -1.2426972117
 C       -10.7514392437       -3.7744224628       -3.0977087447
 C       -10.9006146260       -3.0251235722       -0.6413157227
 C        -5.3892865535        1.6203886548       -3.6950285486
 C        -3.9504814424       -0.3390129515       -2.9529795891
 H        -2.0514109143        2.8884844671       -1.6572915031
 H        -3.3478476704        3.8624868681       -2.1872461636
 H        -2.7325820746        2.6885709660       -3.4339716858
 H        -6.7292717322       -1.1311764381       -2.8727983081
 H        -7.7883330530        0.1639447687       -3.0168197117
 H        -8.8920474837       -0.4354673117       -0.9713282642
 H        -7.5651887601       -1.5806815289       -0.5559701574
 H       -12.3535888263       -0.9996273611       -1.1059260379
 H       -13.4062671739       -1.6448628213       -2.4846583809
 H       -13.9156006010        0.5724704593       -2.2165029241
 H       -13.1110171936        0.6751546093       -3.5813373129
 H       -10.5976587279        5.3178493375       -2.6542637549
 H        -9.7757469514        3.5979626610       -2.6507041709
 H        -8.2247676056        4.8067526856       -1.7917168867
 H        -8.9078464615        4.4414633510       -0.3522212096
 H        -7.3080109349        7.6508316938        2.4858564397
 H        -5.8787380413        6.7153949657        2.3011247855
 H        -7.1492361331        5.4232288148        3.7297437020
 H        -7.3018561680        4.4441240092        2.3207140603
 H       -11.0405143045        7.4065758657        5.1035848665
 H       -12.1196024224        6.3736376552        6.0002357438
 H       -13.2946920467        8.4392581472        5.1425113178
 H       -14.1827454700        6.9704189608        4.7474418334
 H       -16.9721864429        6.9233048276        2.1402523505
 H       -15.7803456054        6.0501609329        3.0430734827
 H       -16.3836563340        5.3457346094        1.5711807431
 H       -16.1840839808        9.3683426934        1.7550224493
 H       -14.9796328154       10.0874355585        2.7526856195
 H       -15.7341804397        8.7855970409        3.3662836177
 H       -13.1787280957        8.4163654988        0.1363397022
 H       -12.6921838040        9.5675544479        1.1611485526
 H       -14.3087534102        9.7176617010        0.2619056534
 H        -9.1488834810        3.2901672165        5.0780956213
 H       -10.4303967585        3.0963723013        3.7384715907
 H       -10.6483589842        3.7279466668        5.5563936827
 H        -8.1987018763        5.5541597370        5.4077676233
 H        -9.5578022253        6.3193948846        6.1290640098
 H        -8.5691810616        6.8940645058        4.8063702883
 H        -8.0787691660        8.3626168586       -2.3453275082
 H        -7.1878554034        6.8047088896       -2.1880344887
 H        -6.4454900803        8.1953327971       -1.6265703303
 H        -9.4198484996        8.8202062409        0.8795011179
 H        -8.8004751056        9.5093739287       -0.5935269040
 H        -7.8546685151        9.4274891921        0.9739629137
 H       -13.5822155020        3.1071243285       -4.0570343777
 H       -11.7228840620        2.9060941623       -4.0614853957
 H       -12.4355116290        4.4156196816       -3.6248536619
 H       -14.6419913440        2.8547597365       -1.6583379810
 H       -13.7835223010        4.1946834745       -0.9602206408
 H       -13.5373999285        2.6365384222       -0.3301181234
 H       -10.5389371204       -4.6781251762       -2.4667689983
 H        -9.9767996776       -3.8553462903       -3.9117828538
 H       -11.7636072886       -3.6060678586       -3.5295398423
 H       -10.1251587407       -3.7566423520       -0.1168974434
 H       -11.8900607174       -3.5590987442       -0.6343506593
 H       -10.8443083720       -2.2246908675        0.0859282758
 H        -5.6259102981        0.8693443771       -4.4177917815
 H        -4.7286944320        2.3019262881       -4.2096813234
 H        -6.2848271548        2.0725006926       -3.2190119448
 H        -3.2163561856       -0.7920964367       -2.2142725933
 H        -3.3569996456       -0.0885030086       -3.8830514140
 H        -4.6209625550       -1.2084774286       -3.1069540470
 Na      -11.8405291482        5.8513650850        0.8554923995
