117

 C        -2.8406681067        2.3205536178       -2.1801469305
 C        -3.8484893034        1.4268889880       -1.3535621389
 O        -3.7545243445        1.4210104319       -0.1176778937
 C        -4.6901995244        0.4103454443       -2.1428422577
 C        -6.0805688978        0.0210772123       -1.2337235949
 O        -6.3091579459        0.5618094720       -0.1759579301
 C        -7.0067598498       -0.9302045238       -2.0222423529
 C        -8.3735794578       -1.3516460075       -1.3825836832
 C        -8.9748775424       -2.5805994616       -2.0848919327
 O        -8.2485499383       -3.3707316859       -2.7292780784
 C       -10.6364052905       -2.8732073710       -2.0502357565
 C       -11.3685187324       -1.6721386556       -2.6289834640
 O       -10.8721930793       -1.1073990518       -3.6173576229
 C       -12.7490565841       -1.0019903389       -2.1615002392
 C       -12.7778867268        0.3797537851       -2.8294363096
 C       -11.8367233543        1.4677237586       -2.1600150106
 O       -10.8331895287        1.1006944472       -1.6674777623
 C       -12.3481810236        3.0047195080       -2.0165117140
 C       -11.2160699402        3.7511510439       -1.3321329379
 O       -11.3780776888        4.0781826555       -0.1603757884
 C        -9.8572059237        4.0684720443       -2.1320498920
 C        -8.9360641281        4.9193706684       -1.2312425591
 C        -9.3393678988        6.3601270007       -0.9911904044
 O       -10.3191990839        7.0116513854       -1.2528987339
 C        -8.0732015617        7.3175530610       -0.4412611530
 C        -6.9235785516        6.5425707547        0.2165754587
 O        -6.0132889937        6.0055623350       -0.4585571912
 C        -6.7189151633        6.6234518370        1.7448257693
 C        -7.5223324560        5.6717673055        2.5684423094
 C        -9.0525924522        5.8413845119        2.6965658433
 O        -9.5922731504        6.1087165386        1.6620641640
 C        -9.9200601739        5.5153650507        4.1063181722
 C       -11.3169978731        6.0066735523        3.8903928757
 O       -11.8506466080        5.7963100242        2.7702625031
 C       -12.1041615977        6.9538363497        4.8660166012
 C       -13.3581933543        7.3991056380        4.1051825388
 C       -12.9390631842        8.1616395877        2.8591746839
 O       -11.8833999266        8.6035580711        2.4206161048
 C       -14.3130441255        8.4070054877        1.8327102468
 C       -14.7368109170        6.8903787630        1.6615639047
 O       -14.1439480243        6.1722037296        0.8670035214
 C       -16.0296163206        6.3182518273        2.3540685539
 C       -15.2020888717        9.2810184655        2.6784997643
 C       -13.8915859770        9.1563692853        0.6298481919
 C        -9.8830259219        3.9324210725        4.0300425461
 C        -9.2551462773        6.1328845379        5.3959877432
 C        -7.4417475391        7.9144220816       -1.8180448063
 C        -8.6790830542        8.4187680991        0.4560981546
 C       -12.5994961650        3.5635774983       -3.4207388565
 C       -13.6314304806        2.9042761202       -1.0674965221
 C       -11.0850047509       -4.1188571203       -2.8257512019
 C       -11.1867456748       -3.1180792973       -0.5735147597
 C        -5.3897408084        1.1428748094       -3.3335040309
 C        -3.8267469875       -0.7658685667       -2.6355687553
 H        -2.0598942911        2.7937882156       -1.6085664106
 H        -3.4176724036        3.0754913208       -2.6122631978
 H        -2.4762017804        1.7312264029       -3.0045977202
 H        -6.6319690313       -1.9221192761       -2.3292678831
 H        -7.1825837222       -0.4854111759       -2.9944515654
 H        -9.0648693268       -0.5403115366       -0.9810892184
 H        -7.9107809320       -1.7421949194       -0.5109993345
 H       -12.7916591322       -0.7968920037       -1.1374643138
 H       -13.5995797012       -1.5011307701       -2.5921984797
 H       -13.8106831711        0.9031457469       -2.6792055070
 H       -12.6539669518        0.4046707258       -3.9043974659
 H       -10.1811492047        4.6762442769       -2.9992835162
 H        -9.2874816935        3.1794299908       -2.1880475548
 H        -8.0198914380        4.8589735357       -1.7742848265
 H        -8.6695465071        4.2616122034       -0.3465115622
 H        -6.9544686626        7.6240719866        2.0161191666
 H        -5.6016504013        6.5951975113        2.1090291376
 H        -7.1839904788        5.7306828110        3.6031638964
 H        -7.2595153326        4.6497244400        2.3819814272
 H       -11.4143753110        7.7198226050        5.0761846686
 H       -12.3374146911        6.4941851007        5.8220509146
 H       -13.9724986441        7.9450045814        4.8410885011
 H       -13.9651642068        6.5581266001        3.6775957436
 H       -16.8562350327        6.2219312372        1.6126103507
 H       -16.3949356815        6.9624415825        3.1957406720
 H       -15.9219374758        5.3214229447        2.7451856091
 H       -16.1855985192        9.4816224051        2.0982501383
 H       -14.8477110997       10.3213173331        2.7072783594
 H       -15.2785942695        8.9206725931        3.6969306371
 H       -13.1090480632        8.8180636439        0.0590478932
 H       -13.6040898109       10.1214236655        0.8972984079
 H       -14.6729867659        9.2451904613       -0.1126645770
 H        -8.9989338737        3.3466003867        3.7880627588
 H       -10.6887442731        3.8321726204        3.3420088985
 H       -10.3004606325        3.6230885397        4.9916349997
 H        -8.2225673714        5.8375024848        5.5893049181
 H        -9.7217400544        5.8040944700        6.3582938063
 H        -9.1381729386        7.2853961449        5.4631825509
 H        -7.6331016936        7.3601772903       -2.7115546866
 H        -6.3672940286        8.0301035436       -1.7089359796
 H        -7.8237683461        8.9107755507       -2.0436361933
 H        -8.9267377990        8.1801272097        1.4691414550
 H        -9.5820113970        8.7218714186        0.0054217837
 H        -8.0380456707        9.2841835930        0.5498405049
 H       -13.0881754230        2.7020735923       -3.9168705716
 H       -11.6452339656        3.7128774259       -3.9824733871
 H       -13.1645539734        4.5006926373       -3.3674393486
 H       -14.4968293857        2.2877748007       -1.4210108417
 H       -13.9950885291        3.9512472144       -0.9627764206
 H       -13.2867475035        2.5288890110       -0.0582377755
 H       -10.7066184025       -4.7929265484       -2.0828444829
 H       -10.6915192547       -4.3184148764       -3.8002721284
 H       -12.2062959132       -4.2678949966       -2.7886089541
 H       -11.2393348632       -4.1344401402       -0.2782364308
 H       -12.2269455129       -2.9496438135       -0.5404448131
 H       -10.6585376475       -2.5905949228        0.0957433606
 H        -6.0750473603        0.4436850662       -3.8468528131
 H        -4.6204047718        1.4535354249       -4.0139242041
 H        -5.9086936230        2.0615620761       -2.9652897404
 H        -3.6689261953       -1.4245801311       -1.7825737271
 H        -2.8003347118       -0.3960254543       -2.7624524872
 H        -4.1424099692       -1.4146218201       -3.3192010877
 Na      -11.9340957677        6.1941778278        0.4623344259
