117

 C        -3.1873963611        1.6916356519       -1.2757124518
 C        -4.1847021345        0.7622094363       -0.7015756490
 O        -4.4517700279        0.7888651403        0.4307226889
 C        -4.8688807254       -0.3290353967       -1.7089854952
 C        -6.2812880378       -0.4697527921       -1.2109911530
 O        -6.8224563562        0.6050336019       -1.0298020770
 C        -7.0056915980       -1.7932385424       -1.2810721516
 C        -8.5502649445       -1.6526690965       -1.4111093136
 C        -9.1217032792       -2.9474302944       -1.7214354513
 O        -8.5947979075       -3.9028208907       -2.2202798837
 C       -10.7587825659       -2.8763562937       -1.8327909073
 C       -11.2778468113       -1.6271362259       -2.6595022662
 O       -10.6079063382       -1.1721989543       -3.5460539193
 C       -12.6422819565       -0.9614348667       -2.3729891791
 C       -12.5982390236        0.4960182861       -2.7669482258
 C       -11.7016364395        1.4518091949       -1.8953754737
 O       -10.7445751077        1.1350565343       -1.1489356501
 C       -12.2193104889        2.9701431511       -1.8301017885
 C       -11.0817304468        3.9640531819       -1.2546580074
 O       -11.3562433206        4.7582010524       -0.3549716515
 C        -9.7597659656        3.8798882443       -1.8050850159
 C        -8.8356491921        4.9542171086       -1.2747781383
 C        -9.2352459134        6.4407585691       -1.1539676936
 O       -10.3844596607        6.8434384797       -1.3950644986
 C        -7.9410130526        7.4402145563       -0.9831581975
 C        -6.8452354354        6.7709848781       -0.1106201738
 O        -6.0942693698        5.9263377530       -0.4726559532
 C        -6.6304198402        7.1723324479        1.4139125478
 C        -7.2429100673        6.0656258907        2.2372166952
 C        -8.8516320583        6.1071945318        2.4081312386
 O        -9.4333270016        6.5016843549        1.3759383291
 C        -9.6463393871        5.5321142877        3.7162388108
 C       -11.1028017702        6.2008962310        3.6417165085
 O       -12.0078941175        5.6563103397        3.1099111914
 C       -11.4228138831        7.5699464371        4.3827551073
 C       -12.8988375883        8.0029341627        4.0006619536
 C       -13.0889155542        8.4064969586        2.4803662211
 O       -12.1112992174        8.6863782952        1.7818559448
 C       -14.4842108865        8.6292167981        1.8030380786
 C       -14.9150417604        7.1564697310        1.6302896782
 O       -14.0705334865        6.3740980873        1.3089687369
 C       -16.2050065793        6.5411011479        2.0209746825
 C       -15.5545707800        9.4507171687        2.5569749575
 C       -14.2945780829        9.3520040240        0.4109907601
 C        -9.7310950429        4.0371549151        3.4224804509
 C        -8.9334354869        5.9072494035        5.0551952487
 C        -7.3283433556        7.4741852030       -2.4613505051
 C        -8.4987913053        8.8731813823       -0.5563509156
 C       -12.5277625538        3.4782141865       -3.3257618436
 C       -13.5020732058        3.1136330356       -0.9240947694
 C       -11.3585693136       -4.2855992430       -2.1787641375
 C       -11.2533585690       -2.5882257263       -0.3662677182
 C        -5.1257875033        0.3476585131       -3.2042711613
 C        -3.9548488625       -1.5766715484       -1.6536151290
 H        -2.3428625002        1.7271728331       -0.6638913582
 H        -3.5669396917        2.7804439567       -1.4782228585
 H        -2.8945070204        1.1754331207       -2.1322708915
 H        -6.8521783859       -2.3617550736       -0.4127498785
 H        -6.6583558356       -2.5462519352       -2.0083646916
 H        -8.9080521146       -0.8421710438       -2.0123627355
 H        -8.8686167693       -1.2822076350       -0.3644676086
 H       -13.0259116058       -0.9552313364       -1.3573050359
 H       -13.2904893201       -1.3162720388       -3.1074794156
 H       -13.5772156019        0.7765510533       -2.8315541284
 H       -12.1518789920        0.5749547960       -3.7902465748
 H        -9.8716944894        4.0555657202       -2.8360483857
 H        -9.5666657938        2.8150623989       -1.4209159354
 H        -7.8840992896        4.7754989882       -1.7819835517
 H        -8.5704110767        4.6566604971       -0.2449874341
 H        -7.1673096656        8.1283743634        1.8622718837
 H        -5.5701436995        7.1918692060        1.5647387787
 H        -6.7484231565        6.0402044052        3.2288035637
 H        -7.0430318408        5.1215994408        1.8194585049
 H       -10.8033297726        8.3488102491        3.8703893338
 H       -11.0715339766        7.4203929048        5.3337123627
 H       -13.0879281831        8.9913796585        4.4499769285
 H       -13.7663111559        7.3826518587        4.3406705928
 H       -15.9950959456        6.1952435834        3.0382432158
 H       -16.6429479658        5.8253293514        1.3796971839
 H       -17.0236804519        7.2707169638        1.9719205879
 H       -16.4826571423        9.0125915074        2.4182416778
 H       -15.5060061777       10.5241333221        2.1921286621
 H       -15.3860412562        9.3774892383        3.6754202890
 H       -13.9228221736        8.6592666098       -0.3200679500
 H       -13.5798871159       10.1539543638        0.4724299219
 H       -15.0602719269        9.7960128276       -0.0718199913
 H        -8.7120914342        3.7795484664        3.3033989744
 H       -10.4250752458        3.7201844234        2.6460864246
 H       -10.1851142986        3.6842267587        4.2936064854
 H        -8.2267999350        5.0292157778        5.2399203888
 H        -9.4589699854        5.8769695007        6.0359189056
 H        -8.5155999605        6.8773049946        5.0731463803
 H        -6.2313434596        7.2965839840       -2.4793679071
 H        -7.4071181058        8.5094731850       -2.7005679224
 H        -7.8360857603        6.9189386597       -3.2757269724
 H        -8.2236755419        9.0182281715        0.4496910900
 H        -9.5569773825        8.9402858607       -0.4957753137
 H        -8.1885291430        9.6068422225       -1.2575146046
 H       -13.3282761377        2.9248695085       -3.8510447780
 H       -11.6773311686        3.3507355344       -3.9870139023
 H       -12.7782477494        4.5771392237       -3.2690496784
 H       -14.3712349136        2.4532378901       -1.0863488329
 H       -13.7222006031        4.1583853266       -1.2727194885
 H       -13.2495353375        3.0433295607        0.1594148111
 H       -11.2274240185       -4.3413635056       -3.3054578577
 H       -12.3875098325       -4.4587490083       -1.8543750610
 H       -10.7962487223       -5.0326789892       -1.7069121754
 H       -10.8203605524       -3.2980040503        0.2927558479
 H       -12.3075095908       -2.6402508200       -0.2400378358
 H       -11.0203080507       -1.5856670074       -0.1011563325
 H        -6.0614497694       -0.0534025468       -3.4729116395
 H        -4.3572354733        0.2196750147       -4.0248630005
 H        -5.4536957212        1.3733804114       -3.0956735118
 H        -3.8174878913       -2.0169195362       -0.7229358746
 H        -3.0555559078       -1.5478964031       -2.1005555821
 H        -4.4833090098       -2.4350509984       -2.1938692341
 Na      -11.7027074677        6.7536462061        0.7632049422
