117

 C        -3.2004447387        1.7366110754       -1.0323679328
 C        -4.2100010514        0.6621848442       -0.5861428599
 O        -4.6938700406        0.6947334416        0.5148482915
 C        -4.8086904457       -0.4878784943       -1.7224702531
 C        -6.2557690630       -0.5596908747       -1.3198702203
 O        -6.9143414179        0.4770828782       -1.1655884204
 C        -6.9557359808       -1.9179126622       -1.0310027509
 C        -8.4558605333       -1.6623864447       -1.2759078049
 C        -9.2746060746       -2.8181983071       -1.8141879384
 O        -8.8241616934       -3.9720123621       -1.9694508583
 C       -10.8986130938       -2.7823122364       -1.7435069701
 C       -11.3565076992       -1.6036314358       -2.6196329854
 O       -10.5808294920       -1.3069851445       -3.5037046289
 C       -12.6863090818       -0.9607801022       -2.4851703918
 C       -12.4891152791        0.5827369686       -2.7168564705
 C       -11.7388153062        1.4148628380       -1.7210320346
 O       -10.7626194082        0.9869278599       -1.1130646321
 C       -12.1820241203        3.1029992073       -1.7494440852
 C       -11.1170234464        3.9930209787       -1.1880431934
 O       -11.5097913909        4.7572538254       -0.3001682893
 C        -9.6584628422        3.9549472316       -1.8342197473
 C        -8.7450981713        5.0511251573       -1.1975642806
 C        -9.1928515304        6.4876309435       -1.2606973945
 O       -10.3427340978        6.9139630220       -1.3660251979
 C        -7.9766277477        7.4875571109       -1.1544508537
 C        -6.8632099529        6.8551116115       -0.0890121667
 O        -6.2471605555        5.9083360326       -0.5066760412
 C        -6.8136628820        7.2457739624        1.3719110760
 C        -7.3679253608        6.2014274077        2.3550106922
 C        -8.8323478359        6.2077988027        2.3099431313
 O        -9.4362038455        6.5719268325        1.3194629093
 C        -9.5860585977        5.6225852517        3.5952484909
 C       -11.0711989781        6.2985877065        3.7240716439
 O       -11.9537035515        5.6439298259        3.1670722354
 C       -11.3793755829        7.8120315717        4.1633130211
 C       -12.8055245619        8.1735856636        3.8187306860
 C       -13.0397056551        8.6372630889        2.3796374897
 O       -11.9979957325        8.6156368547        1.6776066093
 C       -14.4415975460        8.6926120200        1.7473830846
 C       -14.8337658337        7.1627254246        1.5599358511
 O       -13.9634947247        6.3347110041        1.2586391525
 C       -16.2655436111        6.4542288087        1.9225723348
 C       -15.4418610223        9.5265667019        2.7753241994
 C       -14.3972176479        9.4188114400        0.3862062043
 C        -9.7658138257        4.0661924098        3.4354916225
 C        -8.7562044033        5.7562892608        4.8381612415
 C        -7.3699327379        7.2914796956       -2.6433491717
 C        -8.2607460144        8.9362298560       -0.9219310385
 C       -12.4580430561        3.4484929234       -3.2429064260
 C       -13.4883969587        3.1396259756       -1.0016407551
 C       -11.3711356857       -4.1569090005       -2.2287698505
 C       -11.2632615236       -2.6053471304       -0.1357938385
 C        -4.7908512116        0.1455733209       -3.1120263595
 C        -4.1004879880       -1.7992141667       -1.6212152317
 H        -2.3640376402        1.7798989378       -0.3769070395
 H        -3.8036974057        2.7093409943       -0.9963835911
 H        -2.7642329487        1.5053585923       -2.0627571174
 H        -6.7569100502       -2.3230493052       -0.0725901619
 H        -6.6788861038       -2.7330210887       -1.6305126887
 H        -8.4809259470       -0.8689850931       -2.0054738049
 H        -8.8158611567       -1.0397732162       -0.4098681199
 H       -13.1271441669       -1.0043386968       -1.4820529842
 H       -13.3605175616       -1.2163406592       -3.3088539150
 H       -13.5736800471        0.9598307106       -2.9306558582
 H       -11.8567502974        0.7386429352       -3.5258409419
 H        -9.7901628012        4.2192868675       -2.8886634579
 H        -9.2338794802        2.9320906227       -1.5661926869
 H        -7.8032831690        4.9432309113       -1.7721450343
 H        -8.4263586749        4.7548821322       -0.2692312674
 H        -7.3553214216        8.1548751160        1.5446118425
 H        -5.7679142705        7.3157768454        1.6664289008
 H        -6.9625118819        6.2622164978        3.3403419635
 H        -7.0686440356        5.2179863963        1.9635840840
 H       -10.6740204066        8.4832713671        3.6489577539
 H       -11.1363671993        7.8201004880        5.2459692676
 H       -13.2245115904        8.7836488123        4.6343099003
 H       -13.4298823646        7.2738798584        3.8165638295
 H       -16.4690458748        6.6081683801        3.0012785853
 H       -16.4173318221        5.4059059561        1.6644675788
 H       -17.0359497246        6.8367884941        1.2790688879
 H       -16.4214276300        9.1770513332        2.6249521776
 H       -15.3022261645       10.5286966778        2.5868423299
 H       -15.2796554036        9.2769975930        3.8236044409
 H       -13.9466803936        8.8287596100       -0.4655830790
 H       -13.8478425538       10.2787879499        0.4505232982
 H       -15.3336561680        9.8647838375       -0.0933315068
 H        -8.8349874948        3.8173964195        2.9336467734
 H       -10.6603741521        3.7053572549        3.0355958331
 H        -9.8117149277        3.7294445630        4.5137684137
 H        -7.8529243995        5.0824943147        4.7950993549
 H        -9.2472040639        5.2518855913        5.6156135573
 H        -8.6690356412        6.7589587363        5.3133818459
 H        -6.3416600790        6.9845533799       -2.5608023786
 H        -7.3314719188        8.2856583455       -3.1105088635
 H        -7.9242029694        6.6790559296       -3.3089057398
 H        -8.0977960740        9.1050277555        0.1306413174
 H        -9.2244711148        9.2415468026       -1.0810223894
 H        -7.6278006815        9.4769754234       -1.5101531720
 H       -13.2301956762        2.8440452543       -3.7479910799
 H       -11.4779560751        3.4198865163       -3.9382314749
 H       -12.8366993735        4.4914289208       -3.2551713995
 H       -14.0556439481        2.2068614516       -1.2644466761
 H       -14.0533644210        4.0176993551       -1.3583311667
 H       -13.3294736737        3.1312614270        0.0889551455
 H       -11.5951597789       -3.8971584397       -3.2873219362
 H       -12.2260310289       -4.6329669617       -1.7315373346
 H       -10.5686569044       -4.9165260662       -2.2236877435
 H       -10.9034786897       -3.4523389935        0.3471093222
 H       -12.3221636252       -2.2696837215        0.1026228095
 H       -10.7280671999       -1.8077565345        0.3492208071
 H        -5.3697476809       -0.5843472167       -3.7297451963
 H        -3.7606326532        0.1463812365       -3.4998029697
 H        -5.3379461561        1.0582080673       -3.2180035541
 H        -4.2485722291       -2.0309796759       -0.5948137753
 H        -3.0541644470       -2.0354195975       -1.8325199903
 H        -4.5700364827       -2.6440284816       -2.0720661246
 Na      -11.8081604084        6.6243413183        0.8324083739
