117

 C        -3.3076668814        1.3633811903       -0.3414310604
 C        -4.3903698064        0.1463211778       -0.1454781140
 O        -4.9521292296        0.0328088938        0.9754292484
 C        -4.7768162959       -0.7052518853       -1.3685544116
 C        -6.3384473992       -0.5940132218       -1.4909269897
 O        -6.6797512228        0.2544980227       -2.3071993830
 C        -7.1136596227       -1.8973644673       -1.1527724780
 C        -8.6656228343       -1.7464344122       -1.0065048749
 C        -9.4986110559       -3.0585556667       -1.2320126470
 O        -9.1007264668       -4.2160080653       -1.2659927058
 C       -11.1117021327       -2.9406671069       -1.4857513995
 C       -11.3908335054       -1.7068490759       -2.3751700634
 O       -10.5851975647       -1.3021966370       -3.1918431492
 C       -12.6548301960       -0.9003638643       -2.3045856155
 C       -12.4910316450        0.5491129984       -2.9660276573
 C       -11.9154360062        1.4981820294       -1.9094194331
 O       -11.2992164921        1.1390302182       -0.9544957174
 C       -12.3875358445        2.9744942685       -1.9672353394
 C       -11.3336926164        3.7261150888       -1.0684032193
 O       -11.3636587531        3.8904478600        0.1326371829
 C        -9.9614990392        4.1716962004       -1.9649403307
 C        -9.0368118612        5.0052363325       -1.0203045176
 C        -9.1074017541        6.4966648032       -1.3558445767
 O       -10.1124326786        7.1495724075       -1.1921406071
 C        -7.7295085488        7.3216364566       -1.7291548768
 C        -6.8820565934        7.1307105205       -0.3863689790
 O        -6.0074692993        6.2694281575       -0.3428170516
 C        -7.1114393118        7.8917136237        0.9493325828
 C        -7.2825286647        7.0055301538        2.2430204256
 C        -8.7613443696        6.5819869167        2.2831413681
 O        -9.4720055496        6.9749663050        1.4210870768
 C        -9.4261957589        5.8639456965        3.3984209682
 C       -10.8884983564        6.5126827538        3.5541263029
 O       -11.9016724978        5.8148057078        3.4530803419
 C       -10.9392086407        8.0634117832        3.7592055851
 C       -12.2587994676        8.8025438464        3.5912405923
 C       -12.7474943235        8.7254176362        2.1688962939
 O       -11.9169946416        8.8694035467        1.2498150083
 C       -14.2927949331        8.6554649915        1.8937419680
 C       -14.7855207095        7.2335610826        1.4388615022
 O       -14.1420752054        6.3354122052        0.8982879416
 C       -16.2897844519        6.9811820557        1.5788618020
 C       -15.0861118636        9.1191176450        3.1486359961
 C       -14.5086315898        9.5080349781        0.6965560913
 C        -9.4320115131        4.3181870013        3.0316443067
 C        -8.9082747176        5.8258619904        4.8060642029
 C        -6.9692560686        6.7099858955       -2.8642519340
 C        -8.0652945547        8.8378114884       -1.9209601111
 C       -12.6472664343        3.5483986180       -3.4104936590
 C       -13.8077019120        3.1369010408       -1.2421319873
 C       -11.5975259251       -4.2775098231       -2.0152437576
 C       -11.5567751616       -2.5556906837       -0.0960346832
 C        -4.1423544789       -0.4334190795       -2.7107154941
 C        -4.2315102935       -2.1336117220       -0.7243395474
 H        -2.9007221867        1.7000838786        0.6908492186
 H        -3.8305548412        2.1065324855       -0.8416651714
 H        -2.3931999288        1.0951414074       -0.9156145486
 H        -6.6876435373       -2.2983332354       -0.2478227372
 H        -6.8472280105       -2.6598798164       -1.8526314465
 H        -8.8411388843       -0.9869400107       -1.8031426139
 H        -8.8840749229       -1.1329671884       -0.0754234392
 H       -12.9144597521       -0.6840743767       -1.2537683659
 H       -13.4618229801       -1.5213106629       -2.6921520432
 H       -13.5503319474        0.9180861722       -3.2111777477
 H       -11.9782074485        0.3396761859       -3.7951292680
 H       -10.2762141765        4.7309276695       -2.8689627154
 H        -9.4365963956        3.2485545567       -2.3133672270
 H        -8.0407377456        4.5101027090       -1.1881354754
 H        -9.1847408780        4.8711156840        0.0234195117
 H        -8.0220175608        8.4119232131        0.9299995985
 H        -6.1948194201        8.5616378239        1.1400718973
 H        -7.0011736254        7.5225509900        3.1213251319
 H        -6.7406967729        6.0311527505        2.2106668790
 H       -10.0429783079        8.4267300461        3.3070985421
 H       -10.7859805578        8.2527379998        4.8287648049
 H       -12.0442311131        9.8998820428        3.7412134729
 H       -12.9371477288        8.6138475475        4.4169404556
 H       -16.8110193286        7.4017444240        0.7061076184
 H       -16.9450244601        7.2833987305        2.4116294277
 H       -16.2099437150        5.9150985216        1.5933202075
 H       -16.1467869706        9.4468855135        2.8110777408
 H       -14.5460474153        9.9466351021        3.5863926233
 H       -15.2072213629        8.3094063346        3.8601851217
 H       -13.7692875834        9.5170418864       -0.0106513249
 H       -14.5306988777       10.5393880907        1.0132031423
 H       -15.4618559137        9.4566209573        0.1905677008
 H        -8.4863256990        3.9484214644        3.3732748677
 H        -9.5119633412        4.2423493631        2.0076615024
 H       -10.3044783478        3.9017163422        3.5728798149
 H        -8.0958182372        5.1249159351        4.9717040641
 H        -9.7993054858        5.6263725147        5.3602648543
 H        -8.4935870869        6.8213044834        5.2589452315
 H        -7.2497561782        5.6454626637       -2.8692153434
 H        -5.8504698472        6.7527492969       -2.6415748482
 H        -7.1740058363        7.1892237841       -3.8252798142
 H        -9.0864515497        9.0971841590       -1.6238402993
 H        -7.9536676440        9.0416153176       -2.9612128312
 H        -7.3946384979        9.4487231608       -1.3243850864
 H       -13.5346351246        3.0277698870       -3.7885054692
 H       -11.7643375496        3.3478144062       -4.0582747864
 H       -12.8855752552        4.5829985730       -3.6545940799
 H       -14.5568079333        2.8836810279       -2.0213950699
 H       -13.9575199704        4.1357298128       -0.8251962324
 H       -13.7923894923        2.4655026158       -0.3729330107
 H       -12.3764842391       -4.2225403994       -2.7683560849
 H       -12.1992624584       -4.6498411344       -1.2125395575
 H       -10.7970843167       -5.0270847983       -2.1804645399
 H       -10.9976134273       -3.1204238968        0.5864876733
 H       -12.6071530299       -2.6674746627        0.0130734261
 H       -11.3001411866       -1.6381458349        0.2135111073
 H        -4.5680616683       -1.0377653319       -3.5313011584
 H        -3.1247249593       -0.7733218028       -2.7032626794
 H        -4.0623995314        0.6356390770       -2.8725206719
 H        -4.5401488223       -2.3352254788        0.2716679463
 H        -3.1263019576       -2.1264726490       -0.5652285611
 H        -4.3176733927       -2.9691094935       -1.2709119981
 Na      -11.7216896610        6.5193767218        0.5372108289
