117

 C        -3.3506761887        1.2689106766       -0.1492748175
 C        -4.5026913474        0.1505280347        0.0386754911
 O        -4.8977752047        0.0241786063        1.1737956602
 C        -4.7511435046       -0.8046708004       -1.1691615711
 C        -6.3014404907       -0.8750772791       -1.7071134401
 O        -6.7576943978       -0.0906056054       -2.4672327297
 C        -7.2822214812       -2.0514036812       -1.2510502438
 C        -8.7648624997       -1.7452645098       -1.0623518246
 C        -9.4321606044       -3.0482757078       -1.2107749408
 O        -8.8955562381       -4.0818400959       -1.0156350955
 C       -11.0712406171       -2.9053589694       -1.3479654581
 C       -11.3852090088       -1.6998261486       -2.3820495694
 O       -10.5843550304       -1.2885331072       -3.2223857415
 C       -12.8498709093       -0.9486599037       -2.4107143842
 C       -12.6107646395        0.5476170099       -2.8734825896
 C       -12.1564368085        1.5549889853       -1.8285365780
 O       -11.3348105303        1.1853303564       -1.0150280121
 C       -12.4739129869        3.0501347416       -1.9863761669
 C       -11.3214589007        3.7075230991       -1.2039794532
 O       -11.3970015613        3.8193281462        0.0048200419
 C       -10.1362096068        4.2061662218       -1.9546738398
 C        -8.9870057969        4.9950254355       -1.1525862970
 C        -9.0878919047        6.5474459439       -1.3132352356
 O       -10.1684198219        7.0838997740       -1.2935893306
 C        -7.7381917535        7.2394101162       -1.5863801233
 C        -6.8080968283        7.2002850852       -0.2966395231
 O        -5.8985447575        6.3642553813       -0.3445856061
 C        -7.0638407178        8.1950193483        0.9047322747
 C        -7.2486296892        7.2258159616        2.1939698921
 C        -8.7350995891        6.8025456599        2.3217348215
 O        -9.4666208678        7.0274103989        1.3720775044
 C        -9.4118629360        5.8880011452        3.4872008018
 C       -10.8470106257        6.5363201475        3.4977513241
 O       -11.9009642530        5.9749484932        3.3812589336
 C       -10.7930335851        8.1589060142        3.7982420979
 C       -12.1427712977        8.8562600705        3.6238118197
 C       -12.6785074664        8.6461965969        2.1336417678
 O       -12.0022778852        8.5846142802        1.1600008026
 C       -14.2988071942        8.7193500006        1.8951145180
 C       -14.7318627717        7.2010918020        1.3669571642
 O       -13.9085875481        6.4647434896        0.8908554252
 C       -16.2613656399        6.9235958767        1.4842923957
 C       -15.0305961702        9.0911110504        3.1466511566
 C       -14.5430862308        9.7966809693        0.8163259089
 C        -9.4871278600        4.4132825416        2.7850965736
 C        -8.7120048190        6.0458474978        4.8677313817
 C        -7.0047991533        6.4155531057       -2.7923861811
 C        -8.0144590368        8.7264161477       -2.1280637381
 C       -12.5930761986        3.5497960059       -3.4451515615
 C       -13.9437152463        3.2312627028       -1.2024532848
 C       -11.5079465372       -4.3328024678       -1.8671836119
 C       -11.7095163768       -2.5620739306        0.0663048097
 C        -3.8899800194       -0.5850802947       -2.4148931903
 C        -4.4135507569       -2.2714979813       -0.6927763459
 H        -3.2749386006        1.8031069991        0.8534997015
 H        -3.6256803775        1.8827051333       -1.0114549982
 H        -2.3210879387        0.8471665170       -0.3335342024
 H        -6.9869230447       -2.5783578121       -0.3335358596
 H        -7.2612216165       -2.8183074908       -1.9534676524
 H        -8.9927323432       -0.7756583912       -1.5955114143
 H        -8.9476797368       -1.5013964075       -0.0629225093
 H       -13.3869655394       -0.8800025772       -1.4729748040
 H       -13.5106067067       -1.6372559943       -3.0312074485
 H       -13.4083218211        0.8766795063       -3.5609890967
 H       -11.6903061733        0.2978864298       -3.4743244563
 H       -10.4452585135        4.8154347282       -2.8699237183
 H        -9.8194381650        3.2611612151       -2.3638837510
 H        -8.1052447636        4.4774718259       -1.3410379256
 H        -9.0851999173        4.9457828923       -0.0879961848
 H        -7.9720200012        8.7138158260        0.8157490725
 H        -6.1875304423        8.8321501552        1.0170076848
 H        -7.0613750674        7.7331767900        3.1133030850
 H        -6.7076960827        6.2673671795        2.1338253208
 H       -10.0332680406        8.4573535219        3.0911410680
 H       -10.3062112214        8.4263286241        4.8002170326
 H       -12.1733425040        9.9302095234        3.8712819324
 H       -12.8680435966        8.4607448919        4.3134131453
 H       -16.6577885033        6.7604837302        0.4576489079
 H       -16.8081992082        7.8221975311        1.7303867311
 H       -16.5093695826        6.1544509100        2.2385615614
 H       -16.1100403132        9.1009046034        2.9655370701
 H       -14.7500103275       10.1050566384        3.3806536491
 H       -14.8041282534        8.4854249763        3.9498659132
 H       -13.9490865311        9.7211760539       -0.0903799803
 H       -14.1733777736       10.8685684716        1.1596840923
 H       -15.5518564398       10.0415854769        0.5168656870
 H        -8.6100308410        3.8691478016        3.1216938562
 H        -9.3883669469        4.7084386326        1.7000807298
 H       -10.3939858541        3.9212154027        3.0409007839
 H        -7.6976520596        5.7916657181        4.8063004832
 H        -9.3285140868        5.5844914933        5.7257542267
 H        -8.6242027106        7.1134780576        5.1037385074
 H        -7.7073793892        5.6313114355       -3.0658529806
 H        -6.1043964853        5.9188823564       -2.4095453149
 H        -6.7499552235        7.0347417762       -3.6586842098
 H        -8.9004601261        9.1480292647       -1.9252990164
 H        -7.8720110919        8.6234899085       -3.1650439897
 H        -7.2959295498        9.3798517509       -1.7042115643
 H       -13.3710834214        2.9179796106       -3.9919950231
 H       -11.7441196757        3.8053362975       -4.0041282488
 H       -13.2398919634        4.5001771454       -3.4675380898
 H       -14.6010409947        2.8437109776       -1.9945490726
 H       -14.2721932975        4.1759739368       -0.7445080773
 H       -13.8366753853        2.5093615398       -0.3665456686
 H       -12.2989168766       -4.2173718210       -2.5663769715
 H       -12.0734621051       -4.9116616764       -1.1442056444
 H       -10.6468359128       -4.9336509289       -2.2525547070
 H       -11.1461093907       -3.2769402719        0.7357682374
 H       -12.7027543822       -2.8743675657        0.0594025232
 H       -11.5024982248       -1.6290672172        0.5973070060
 H        -4.4265281435       -1.0262571849       -3.2533601124
 H        -2.8986055237       -0.8711148238       -2.5360234734
 H        -3.8949493179        0.4984957499       -2.4589386789
 H        -4.7497001053       -2.6946429475        0.2237462599
 H        -3.4011511221       -2.5995589737       -0.6714530980
 H        -4.7800248096       -2.8040676555       -1.5464817529
 Na      -11.7643294599        6.4643250598        0.3866723504
