117

 C        -3.7798865473        1.0296794324        0.2961351591
 C        -4.7495675825       -0.2458397277        0.2782139947
 O        -5.5052756164       -0.5510175357        1.2019969724
 C        -4.6054483920       -1.3545349833       -0.8895377654
 C        -5.9817864990       -1.1716310697       -1.6001212787
 O        -6.0683131548       -0.4509412805       -2.5536282415
 C        -7.1572555075       -2.1152226710       -0.9757770126
 C        -8.7584601032       -1.7416979649       -1.1175566380
 C        -9.6396691062       -2.9097397464       -0.8254288422
 O        -9.2326934384       -3.9245201249       -0.3790476443
 C       -11.1597104083       -2.6086054182       -1.1817015666
 C       -11.4940650632       -1.6730168872       -2.2620110302
 O       -10.7256943306       -1.6215883444       -3.2439613182
 C       -12.8993001457       -1.0253937704       -2.3024060101
 C       -13.0897068182        0.4902177990       -2.8514750780
 C       -12.4178170693        1.3460945822       -1.8384070675
 O       -11.6251250089        0.9661438542       -1.0127599409
 C       -12.6985951939        2.8479468560       -2.0634624503
 C       -11.6336897065        3.7775251909       -1.4029021099
 O       -11.8641823866        4.1132322684       -0.2560322892
 C       -10.2520049193        4.2564393033       -2.1389621776
 C        -9.1423994773        4.8233872471       -1.1025997033
 C        -9.0128117640        6.3741836399       -1.4591328246
 O        -9.9998073699        7.0443085109       -1.6326951450
 C        -7.6276381637        7.0324456824       -1.6658981258
 C        -6.8062971157        7.2134805228       -0.4051551537
 O        -5.8064435402        6.5616742781       -0.0867528632
 C        -7.0442312547        8.3876952769        0.5263790532
 C        -7.4315572890        7.9771539110        1.9699860005
 C        -8.6469359072        7.0343242286        1.9084521902
 O        -9.2273869593        7.0172456852        0.9070401349
 C        -9.1148980275        6.2647778079        3.2088014398
 C       -10.5538080821        7.0178449010        3.4437930799
 O       -11.6208885330        6.4801200978        3.1580842389
 C       -10.7456299975        8.5098056004        3.7884767073
 C       -12.2240509931        9.0291434432        3.6870748623
 C       -12.7528600942        8.7335945927        2.3087276257
 O       -11.9402697672        8.4739396974        1.4685406275
 C       -14.2406350228        8.7342599718        1.9988370947
 C       -14.6141865559        7.4732653741        1.1464384717
 O       -13.9135960816        6.6873905191        0.5726213748
 C       -16.1124545137        7.0852061040        1.1791629882
 C       -15.1005462086        8.9689285397        3.2679423147
 C       -14.5149395583        9.8960153777        1.0417597133
 C        -9.4609353770        4.7889674269        2.9381303767
 C        -8.0947110497        6.4494213871        4.3799725922
 C        -6.6838962640        6.0981730193       -2.6634715500
 C        -7.8903210186        8.4167287403       -2.3341626287
 C       -12.8180934840        3.2343865501       -3.5598615342
 C       -14.0483915778        3.2018198367       -1.2688676542
 C       -11.6546052755       -4.0331189197       -1.7901159944
 C       -11.9673860644       -2.4394230092        0.1934429172
 C        -3.5713639437       -1.0148757287       -2.0485465389
 C        -4.2089309591       -2.5991106270       -0.2301183803
 H        -4.1490124971        1.6381877816        1.1676715720
 H        -3.9022820301        1.6081786302       -0.5924992958
 H        -2.7417325334        0.7923505735        0.3956887476
 H        -7.0190756128       -2.3497980671        0.1019185137
 H        -7.0725121106       -3.0407000965       -1.5729693118
 H        -8.9875667546       -1.3557146522       -2.2077991536
 H        -9.0126036796       -0.8435967223       -0.4793982592
 H       -13.3689746582       -0.9701289061       -1.3612540501
 H       -13.6278752018       -1.7145924818       -2.7360279326
 H       -14.2053394238        0.5058115218       -3.0108775809
 H       -12.6447453410        0.5880815189       -3.7477737322
 H       -10.4045661876        5.0377512362       -2.8923013409
 H       -10.0164864916        3.3755884912       -2.7354484268
 H        -8.1499588160        4.2719848012       -1.0223928065
 H        -9.6511264612        4.7310566894       -0.1062180101
 H        -7.8971052514        8.9024044041        0.1570696317
 H        -6.1721774890        9.1810205452        0.5789249281
 H        -7.9021164106        8.7883823256        2.4799696678
 H        -6.5544856375        7.5077610283        2.4719811318
 H       -10.1893718051        9.2849871069        3.3499402056
 H       -10.4211625426        8.5641254873        4.8504423594
 H       -12.2231561188       10.1599216897        3.8323534068
 H       -12.9201253467        8.6385030675        4.4270125043
 H       -16.1387244023        6.3607987482        2.0286014012
 H       -16.5460651539        6.6202597763        0.2543402323
 H       -16.7475807199        7.9294502155        1.5004807729
 H       -16.1609564322        9.3880964747        3.0141949905
 H       -14.7281556511        9.7442961098        3.9785124528
 H       -15.0314249552        8.0321591355        3.7985559028
 H       -14.1125001766        9.6803306792        0.1370377361
 H       -13.9739725614       10.8305332182        1.2547769212
 H       -15.4970106982       10.1597039359        0.8578534674
 H        -8.6189966787        4.2759394013        2.5814931689
 H       -10.3069825731        4.8360417014        2.2897374773
 H        -9.6071037796        4.3701989112        3.9194920199
 H        -7.1277145800        6.1705884741        4.0215220796
 H        -8.3958656463        5.6426303941        5.0756813657
 H        -7.9028780731        7.4895812517        4.8139089613
 H        -6.4185888411        6.6701967392       -3.5266031797
 H        -7.1256697764        5.1065512571       -2.9050152108
 H        -5.7936277557        5.9313188721       -2.0704138760
 H        -8.0956282337        9.2387054511       -1.6530251656
 H        -8.7778795655        8.1992892996       -3.0187453266
 H        -6.9472104518        8.8100771604       -2.8842995139
 H       -13.8873958731        3.1817230225       -3.8047821603
 H       -12.2760507278        2.8928422451       -4.3858861831
 H       -12.6731317477        4.2925745405       -3.5303079179
 H       -14.9007059221        2.5771524975       -1.4829899161
 H       -14.2642216248        4.1573854254       -1.6655965168
 H       -13.8502097327        3.4125027589       -0.2276660582
 H       -12.6615933106       -4.3654120584       -1.5867340729
 H       -11.0735872525       -4.8371180606       -1.3175688293
 H       -11.4329972191       -4.0019735983       -2.9100176764
 H       -11.6256638277       -3.1880753303        0.9506291448
 H       -12.9881277088       -2.5688446901        0.1843599560
 H       -11.6439210111       -1.5013746760        0.5752833637
 H        -3.1238790161       -1.9819474186       -2.4659910047
 H        -2.7679116930       -0.4533932291       -1.6185360167
 H        -3.8803728531       -0.3543444909       -2.9180104227
 H        -4.8319599367       -2.7100678688        0.6990437916
 H        -3.1584180150       -2.5407154779        0.2263526793
 H        -4.2362540517       -3.5174796475       -0.7383286567
 Na      -11.3365641419        6.2940379481        0.2499405990
