117

 C        -4.0440594287        0.8765554295        0.4912897871
 C        -4.7699139997       -0.3556731009        0.2705792679
 O        -5.6590672982       -0.6277427185        1.0586758035
 C        -4.4638760190       -1.4696840099       -0.7341207634
 C        -5.9649192049       -1.3414412986       -1.5589399812
 O        -6.1511275082       -0.5490164521       -2.4349932623
 C        -7.0935250837       -2.1008579731       -0.8169164935
 C        -8.5184649676       -1.6936356165       -1.2298794168
 C        -9.6068025410       -2.8349458564       -0.7495041397
 O        -9.3066751870       -3.8423817411       -0.1519548428
 C       -11.1604582336       -2.6957154873       -1.1443923054
 C       -11.5984760296       -1.6698214938       -2.2914507066
 O       -10.9537313826       -1.4061025604       -3.2799964476
 C       -13.0749742898       -1.0926334284       -2.2550931215
 C       -13.0751894035        0.3229910604       -2.8318438066
 C       -12.3968812443        1.3217953889       -1.9319066204
 O       -11.7094153660        0.9747478114       -0.9662391598
 C       -12.8087014858        3.0024614108       -2.1346461653
 C       -11.6591136845        3.7348295852       -1.3775548051
 O       -11.8372975152        4.2085794837       -0.2321718095
 C       -10.3520813179        4.0776121684       -2.0689522121
 C        -9.1744938034        4.8070704443       -1.2856514466
 C        -8.9696565165        6.3186417774       -1.6158661229
 O        -9.9748014109        6.9595115902       -1.7262946576
 C        -7.5170510491        7.0412521067       -1.8377212384
 C        -6.7052201412        7.2425298759       -0.4558139052
 O        -5.9063481400        6.4783126808       -0.0004129613
 C        -7.0725325033        8.5902690020        0.4551229557
 C        -7.3918634758        8.1475501220        1.8740804581
 C        -8.5649485375        7.1707742506        1.9331539821
 O        -9.1886400451        6.8093619502        0.9119382707
 C        -9.1539922980        6.4614787024        3.2171823842
 C       -10.5742093718        7.0997047646        3.4404586090
 O       -11.5567451231        6.4730624882        3.1025879383
 C       -10.5718526634        8.6028985738        4.0125004057
 C       -12.0034126786        9.0880324649        3.8301242448
 C       -12.6288263241        8.6997353529        2.3962681215
 O       -11.8766950324        8.6663627017        1.4350780941
 C       -14.2001625287        8.6629609333        2.0088011423
 C       -14.6580638260        7.3964419874        1.1503557814
 O       -13.8876198461        6.7477592057        0.4242347797
 C       -16.1774439025        7.1601777855        1.1160183960
 C       -15.1908793326        8.8314177798        3.2237660500
 C       -14.4786963441        9.9296296567        0.9949293338
 C        -9.3308528602        4.9842247516        2.8849482718
 C        -8.0757728848        6.6878878047        4.3340266489
 C        -6.6062268908        6.0544105757       -2.7020959428
 C        -7.7542886735        8.3558655188       -2.5909217580
 C       -12.8676566456        3.1013363838       -3.6187596330
 C       -14.2219452351        3.0502839322       -1.4306659787
 C       -11.7869673744       -4.0948964631       -1.6908904617
 C       -11.9116049954       -2.3728112384        0.1672496858
 C        -3.3822055749       -1.1897827021       -1.8399054701
 C        -4.1154443802       -2.7611789861       -0.0622268930
 H        -4.5013241018        1.3791170897        1.2897977487
 H        -4.4123066669        1.4019195915       -0.5506335207
 H        -2.9305536543        0.8294741016        0.4432798084
 H        -7.0873496279       -1.9264142334        0.2614611311
 H        -7.0091760492       -3.1166911725       -1.0277181659
 H        -8.7149942030       -1.5632784071       -2.3679177009
 H        -8.7077823592       -0.6971122154       -0.7975633172
 H       -13.6781976392       -1.1443403211       -1.3736736305
 H       -13.7771660252       -1.6571993667       -2.8687027103
 H       -14.1001621914        0.4433140134       -2.9569185151
 H       -12.7105409745        0.1249768710       -3.8812528635
 H       -10.5879611319        4.6169893542       -3.0361166125
 H       -10.0054844415        3.1173889571       -2.4842369571
 H        -8.2918652377        4.2929518621       -1.4561129243
 H        -9.4454433284        4.6761282706       -0.2261689782
 H        -7.9093176038        9.1878050847        0.0463454827
 H        -6.2890964969        9.2839845579        0.5812576673
 H        -7.7629099393        8.9317341387        2.4844385225
 H        -6.5075692073        7.6289239777        2.1939974348
 H       -10.0337975123        9.1599281688        3.3050302804
 H       -10.0366743930        8.8859001112        4.9672862634
 H       -12.2408421114       10.1605277869        3.9971923072
 H       -12.6364036020        8.5086623582        4.5203479516
 H       -16.5462768790        7.1581501383        2.1906081777
 H       -16.5194290145        6.3131543210        0.5299735580
 H       -16.6468378719        8.0792471759        0.6854505792
 H       -16.1109882785        9.0978797445        2.8294181517
 H       -14.9542465796        9.7164439606        3.8798483204
 H       -15.1704403784        7.9361665807        3.8752713303
 H       -13.6777625749        9.8837488880        0.1968408156
 H       -14.3272980604       10.9372102945        1.3504982511
 H       -15.3689243255        9.8957544259        0.4522098725
 H        -8.5042600696        4.6976204958        2.2889629337
 H       -10.2965646622        4.9260420934        2.3564320082
 H        -9.2156023545        4.4484568213        3.7336422339
 H        -7.2380783080        5.9690079936        4.1733319545
 H        -8.5146560612        6.3741163040        5.3532283996
 H        -7.6500094150        7.6517110847        4.2713300282
 H        -5.9341120054        6.6848019046       -3.3453227523
 H        -7.2212912906        5.3631196180       -3.2735488282
 H        -5.9923549038        5.4745219162       -1.9676232231
 H        -8.1918700702        9.1125612285       -1.9475247618
 H        -8.4521355447        8.1315669567       -3.4274291700
 H        -6.7987176121        8.7818074331       -2.8995608400
 H       -13.8284330466        2.7881528284       -4.0756006387
 H       -12.1635379139        2.4882726260       -4.1775024258
 H       -12.6108739245        4.1337868787       -3.9654856942
 H       -14.8451479193        2.3084346417       -1.9173182829
 H       -14.7874313746        3.9952562435       -1.4163393436
 H       -13.9800185587        2.7593506302       -0.4123935697
 H       -12.8549337037       -4.2100643836       -1.5022141015
 H       -11.3819479886       -5.0692327960       -1.3591361512
 H       -11.7192392674       -3.9655630144       -2.7695450502
 H       -11.5382058041       -2.9412925906        0.9317688583
 H       -12.9068230668       -2.5383776543        0.2919487738
 H       -11.6249242953       -1.3616157375        0.3087389361
 H        -2.9487827214       -2.0531013026       -2.3531955404
 H        -2.6038048460       -0.6180638286       -1.3228966217
 H        -3.7125296936       -0.4552708410       -2.6277547507
 H        -4.6635289911       -3.1622127912        0.7707004038
 H        -3.1522741621       -2.6378283156        0.2968355321
 H        -4.0091130014       -3.6054863377       -0.7964731363
 Na      -11.4065206176        6.5420670055        0.3830674918
