117

 C        -4.1278102460        0.9237424876        0.4937190588
 C        -4.8601426746       -0.5053539081        0.4433195359
 O        -5.8190374619       -0.6984045752        1.1220263443
 C        -4.4581061915       -1.5777104672       -0.7245135889
 C        -5.9684922686       -1.6009656034       -1.3745133613
 O        -6.1624955810       -0.7511656544       -2.2805973134
 C        -7.1279239553       -2.2805497219       -0.7179711583
 C        -8.4618945508       -1.9179533248       -1.3530012304
 C        -9.6154967798       -2.8404816888       -0.9802426995
 O        -9.3090264181       -3.5393554673        0.0178799162
 C       -11.2372691786       -2.6657845865       -1.2159378527
 C       -11.7518328290       -1.6398955328       -2.2988223276
 O       -11.0191190140       -1.2579864866       -3.1815736691
 C       -13.1873567366       -1.1798163815       -2.2448019841
 C       -13.1435212637        0.2786517854       -2.7947024954
 C       -12.4885496363        1.2808157940       -1.8429873940
 O       -11.7370620505        1.0151541234       -0.9419574945
 C       -12.7391877431        2.7637137247       -2.1364891273
 C       -11.6825185369        3.8974590711       -1.3321369853
 O       -11.8985919234        4.3507624103       -0.2274392204
 C       -10.3383282955        3.9789943264       -2.1425311600
 C        -9.1744581930        4.6829650385       -1.5116518310
 C        -8.9787985993        6.2181314920       -1.7740312616
 O        -9.9475290619        6.9914650560       -1.7906196650
 C        -7.5050205036        6.9227861491       -1.9560176930
 C        -6.8570175780        7.3016495951       -0.4729680688
 O        -6.1312092059        6.4609680190       -0.0131420655
 C        -7.1566783432        8.5556618862        0.2835611722
 C        -7.3899445553        8.2151214768        1.7825717808
 C        -8.6090112511        7.3134974251        1.8556997235
 O        -9.0186969117        6.7636622610        0.7790605389
 C        -9.0440631442        6.5879297830        3.2243786833
 C       -10.4324821342        7.2253988611        3.4794584988
 O       -11.3960052780        6.5895384087        3.1344491209
 C       -10.6613013229        8.5315809321        4.0023927290
 C       -12.0783129568        9.0628013049        3.7931123855
 C       -12.6224295973        8.8279922765        2.3584307480
 O       -11.7697971363        8.8431989032        1.4719678527
 C       -14.1125301712        8.6693209046        1.9968200799
 C       -14.6492557715        7.4468436920        1.1825879711
 O       -13.8739674498        6.8876096762        0.4184235280
 C       -16.1157322639        7.1441644510        0.9579523107
 C       -15.0835284366        8.7907017706        3.2367427071
 C       -14.3424935126        9.8281768964        1.0991016849
 C        -9.0983819957        5.0613141271        2.9003313618
 C        -8.1325403581        6.9226953693        4.4842414931
 C        -6.5773439505        5.9906531655       -2.6999431554
 C        -7.6082133500        8.1728748432       -2.8286639310
 C       -12.8869293953        3.1265249389       -3.7115950195
 C       -14.1942044689        2.9486650478       -1.5897028563
 C       -11.7452802680       -4.0563105504       -1.5286771513
 C       -11.7851447200       -2.2717049268        0.1984984596
 C        -3.2454061681       -1.1723926274       -1.6209708240
 C        -4.1926061433       -2.9705548207       -0.0187464208
 H        -4.4301176408        1.4301739187        1.4454456030
 H        -4.4132020946        1.5175668468       -0.3668586168
 H        -3.0181114940        0.6617438594        0.3442712487
 H        -7.2350086446       -1.9816912451        0.2954109396
 H        -7.0330258314       -3.3459804200       -0.8303014744
 H        -8.4676857009       -1.8317954738       -2.3705327711
 H        -8.7555700521       -0.9387344562       -0.9750580118
 H       -13.5790254849       -1.2799716746       -1.1631490348
 H       -13.9589846210       -1.8231456051       -2.6498920021
 H       -14.0537604824        0.4302609624       -3.3030614335
 H       -12.4290883186       -0.0354330674       -3.6794350988
 H       -10.5233370564        4.2920736397       -3.1839684963
 H       -10.0385693032        2.8983505255       -2.3547142045
 H        -8.2736178197        4.2243962793       -1.8866993137
 H        -9.3116136655        4.5002315509       -0.4879344116
 H        -7.9335472844        9.2228138201       -0.1340832124
 H        -6.3214558511        9.1666836255        0.2803739792
 H        -7.5268921181        9.1041767781        2.4213624505
 H        -6.6186990764        7.5371596897        2.0046700542
 H        -9.8875535906        9.2256456807        3.5228650516
 H       -10.4437740463        8.7281520217        5.0344520046
 H       -12.1689131239       10.1254018179        3.9171494061
 H       -12.6460588886        8.5683139201        4.6044792872
 H       -16.8210472473        7.4986908333        1.7365420921
 H       -16.0837594532        6.0723516591        0.7866903802
 H       -16.4565453574        7.5609626147        0.0068737913
 H       -16.0590724310        8.9729417689        2.8677147637
 H       -14.8259885972        9.6078343902        3.8467430396
 H       -15.0395272939        7.8981661988        3.8578825216
 H       -13.4472610852       10.1893328841        0.5095884236
 H       -14.6099299608       10.7521863623        1.5600920295
 H       -15.1324874509        9.6116149324        0.2370298978
 H        -8.2148167700        4.8209349089        2.2960963741
 H       -10.0165897806        4.9806916640        2.3697806075
 H        -8.9934981889        4.4598970902        3.8382310711
 H        -7.3530635176        6.1356726418        4.7680101711
 H        -8.7512356390        6.9729212309        5.3203932840
 H        -7.6541631998        7.8426342811        4.2492907186
 H        -5.6033722246        6.5307206565       -2.8348452905
 H        -7.0990880080        5.9297612510       -3.6513411646
 H        -6.4495125640        4.9665435465       -2.3006357416
 H        -8.4255475538        8.7920412380       -2.4138294761
 H        -7.7981189710        7.9777908419       -3.8262479415
 H        -6.7493952928        8.7198140676       -2.7116487386
 H       -13.4963780756        2.5037183347       -4.3490215196
 H       -11.8382120947        2.8437388165       -4.1748679418
 H       -12.9276289894        4.2147614502       -3.9447139541
 H       -14.8563613030        2.4961301962       -2.3462814308
 H       -14.4925873588        4.0312619641       -1.5375016878
 H       -14.3150862693        2.4719036444       -0.6112286193
 H       -12.8904167837       -4.1650236639       -1.4799183114
 H       -11.3625572819       -4.8128799821       -0.8479288946
 H       -11.5630805732       -4.3047100975       -2.5403210682
 H       -11.3375663340       -2.8699016358        0.9363326309
 H       -12.8646299975       -2.5688854453        0.4470208801
 H       -11.6711083840       -1.2173349142        0.3281035244
 H        -2.9158112587       -1.9593010131       -2.2682456436
 H        -2.4507431919       -0.8848925865       -0.8672553329
 H        -3.3261018506       -0.3582012668       -2.3100709556
 H        -4.9044918021       -3.3151064864        0.6926092890
 H        -3.2698862993       -2.8296092725        0.4802727142
 H        -4.0438509983       -3.8716359191       -0.6433123927
 Na      -11.5879231045        6.7428087937        0.4768293307
