117

 C        -4.6822414578        0.5123867721        0.7832373297
 C        -5.1661604272       -0.8812032588        0.9910135438
 O        -5.7669647976       -1.0449913376        2.0296881699
 C        -5.0122129370       -2.0543793094       -0.0212151652
 C        -6.0694191867       -2.0955930130       -1.3057858308
 O        -6.2096487027       -1.2799808666       -2.1238944851
 C        -7.1753472022       -3.3321945663       -1.3036654692
 C        -8.5827222383       -2.8002454576       -1.7288645296
 C        -9.6591134859       -2.8977554035       -0.4689070712
 O        -9.2603172337       -2.9790832495        0.6508619428
 C       -11.0888646614       -2.4769161309       -0.7254797706
 C       -11.3924964810       -1.4890277168       -1.9272232532
 O       -10.5179148079       -1.0679867627       -2.6694544434
 C       -12.9282202742       -0.9965997963       -2.0898669930
 C       -13.0910130030        0.4232042890       -2.6281577335
 C       -12.5383358839        1.4848690068       -1.8587447223
 O       -11.6597276451        1.5221142410       -0.9697853687
 C       -12.8446179094        2.9512317264       -2.4725401897
 C       -11.7147513207        3.8811934815       -1.9903192386
 O       -12.0004116277        4.7553515644       -1.2060501006
 C       -10.2548487797        3.5921703981       -2.4726504967
 C        -9.2549562767        4.3704137092       -1.6743313355
 C        -9.0983172962        5.9182201477       -2.0680896621
 O        -9.9558894371        6.7652946920       -2.0577030369
 C        -7.5369916021        6.5407957005       -2.3413296167
 C        -7.1004290013        6.8636656500       -0.9388561500
 O        -6.7366281569        5.9667945365       -0.1485456032
 C        -7.4283281937        8.3034080155       -0.5243626272
 C        -7.4261825200        8.4101697400        1.0572283164
 C        -8.3942570053        7.3597405506        1.6688705151
 O        -8.9156609291        6.4798477985        1.0959511780
 C        -8.5448398232        7.3189319006        3.3460199875
 C       -10.2042509972        7.4417534844        3.4415065564
 O       -10.9594859993        6.5726302583        2.9279805754
 C       -10.8175396551        8.7170133933        4.2381732358
 C       -12.3733462159        8.7386198526        3.9465974922
 C       -12.6685178065        9.0768740779        2.4108525011
 O       -11.8689734486        9.1040187810        1.4891262336
 C       -14.2604683934        9.1027107410        2.0051718714
 C       -14.3972003314        7.8913117363        0.8846820637
 O       -13.4339282735        7.3032645929        0.3686463752
 C       -15.6683902364        7.1610800911        0.5616922759
 C       -15.1703638962        9.0909499896        3.2850866984
 C       -14.4073164580       10.4286328821        1.1191834635
 C        -8.1278906805        5.8474681942        3.8556562606
 C        -7.7392127028        8.4558472920        4.1191880587
 C        -6.6559438913        5.4029475730       -2.9805048595
 C        -7.7301441948        7.7326038235       -3.3281170223
 C       -13.1831438054        3.1414434511       -3.9472331510
 C       -14.0902604428        3.4085113983       -1.6863230145
 C       -11.9348628181       -3.7551210630       -1.0870642955
 C       -11.6753091230       -1.8921907564        0.5946175733
 C        -3.5086965419       -1.7908167804       -0.6519285511
 C        -5.0827297489       -3.4287099724        0.6563235305
 H        -5.4106846679        1.0472874997        1.3259395869
 H        -4.5975752936        0.8480745324       -0.2979020753
 H        -3.6679375672        0.4420268342        1.1993528174
 H        -7.3247598648       -3.8562878567       -0.3989180409
 H        -6.8156003397       -4.0027370512       -2.1237784113
 H        -8.9564659546       -3.3558933667       -2.5244087346
 H        -8.3781309407       -1.8680444045       -2.0890678329
 H       -13.4223666000       -1.0022492824       -1.0433152659
 H       -13.4202730023       -1.9188881497       -2.5402602966
 H       -14.2769715016        0.5784212285       -2.6623694003
 H       -12.7873835436        0.5362404636       -3.6310469030
 H       -10.1765877202        3.6664278733       -3.5530321668
 H       -10.0527774248        2.4917636626       -2.3192787954
 H        -8.3353344404        3.7916577843       -1.8664844311
 H        -9.5458926975        4.3684471824       -0.6617792232
 H        -8.3003426555        8.6255866367       -0.9459033402
 H        -6.6636666303        9.0221329009       -1.0400735934
 H        -7.7921573680        9.3254349366        1.4989993346
 H        -6.4217867094        8.1528298931        1.3981326868
 H       -10.6189216601        9.8016727350        4.0466953052
 H       -10.6205690661        8.6597495622        5.3020205369
 H       -12.7757296478        9.4693734390        4.6243676012
 H       -12.8448756479        7.7673523277        4.0843500967
 H       -16.3802216710        7.7150533499       -0.0329579728
 H       -15.9681988699        6.7498664875        1.5284040203
 H       -15.4975236513        6.1606693427        0.1486632048
 H       -16.2351790316        9.3979140387        3.1237712394
 H       -14.7218932849        9.8252025971        3.9089084517
 H       -15.1927095613        8.1760298400        3.7494823327
 H       -13.8547268929       10.4245948292        0.1400132865
 H       -13.9636901278       11.3853777626        1.7198465441
 H       -15.4264687309       10.6890090260        0.7722749328
 H        -7.0699648455        5.7989384621        3.6552827143
 H        -8.6967286605        5.0721378640        3.2878959800
 H        -8.4809365022        5.7917086826        4.8693064592
 H        -6.7906306459        8.2128674456        3.8596356177
 H        -7.8630935090        8.1059467262        5.1623762271
 H        -8.0868427408        9.5259419594        4.0174828272
 H        -6.0096955756        5.6946722580       -3.8144986050
 H        -7.3391918217        4.5451412732       -3.3089907408
 H        -6.0299897246        4.9906789279       -2.1640888063
 H        -8.2010144658        8.5277454080       -2.9682945623
 H        -8.3478199972        7.4505145919       -4.1577296825
 H        -6.7975306805        7.9488593501       -3.8145097249
 H       -14.3450662341        3.0295809155       -3.9447748164
 H       -12.9853500761        2.5670164730       -4.8095586481
 H       -13.0879704148        4.2603415681       -4.1808374540
 H       -14.7646372142        2.5412598927       -1.5678965392
 H       -14.5946552478        4.1244064992       -2.2923166550
 H       -13.8582842041        3.8071734051       -0.6815727643
 H       -12.9927829811       -3.7086477868       -1.0073083424
 H       -11.4507235881       -4.6396598515       -0.7440508070
 H       -11.8205981064       -3.9733150030       -2.1793819196
 H       -11.0836274029       -2.3290772414        1.4417665039
 H       -12.7059753802       -1.8620652309        0.6999170437
 H       -11.4274008778       -0.7789882333        0.6337725339
 H        -3.0263064389       -2.7554414855       -1.0074748362
 H        -2.8777426233       -1.5497345368        0.1761935871
 H        -3.3141958323       -1.1020808892       -1.4987007001
 H        -6.0941086207       -3.5286424250        1.0650056382
 H        -4.2936581485       -3.4113363003        1.4603421040
 H        -5.0736299665       -4.2859156786        0.1084050413
 Na      -11.2998582145        6.6390170777       -0.1039513979
