117

 C        -5.3055599032        0.1403264478        0.9007584267
 C        -5.6301447396       -1.3051288897        1.2127826395
 O        -6.1333474588       -1.5641863323        2.3057084784
 C        -5.3266601919       -2.5230472057        0.2812592137
 C        -6.4595735829       -2.6192114319       -0.8065979595
 O        -6.6858706509       -1.5833258617       -1.3253723719
 C        -7.3410987814       -3.8882895309       -1.1220894319
 C        -8.6734525550       -3.2548445070       -1.5458697114
 C        -9.2904813648       -2.5479060528       -0.2706645187
 O        -8.7476332207       -2.4074177734        0.7682528088
 C       -10.9312067040       -2.2436736150       -0.3749252937
 C       -11.2704321613       -1.1668016857       -1.4830078016
 O       -10.3982060913       -0.6142924314       -2.0582487083
 C       -12.6863331900       -1.0541808491       -1.9810581330
 C       -12.9377381994        0.2274960077       -2.8304989692
 C       -12.7052038614        1.4722994884       -2.0368313923
 O       -12.0793842184        1.5568484598       -0.9779305470
 C       -13.0028403500        3.0162999941       -2.6923500214
 C       -11.9773198593        4.1057262632       -2.0527575804
 O       -12.2869200693        4.9957645801       -1.2821655396
 C       -10.4473039264        3.8908053907       -2.5459333918
 C        -9.3575805738        4.4285452063       -1.6634339874
 C        -8.9370996726        5.8245817144       -2.1914672102
 O        -9.8409780280        6.6708566745       -2.1123802956
 C        -7.5538725565        6.1068907987       -2.8124607055
 C        -6.7587533442        6.6529155382       -1.3583909157
 O        -5.8075147246        6.0709994530       -0.9561932118
 C        -7.4845001293        7.8601973874       -0.7583415444
 C        -7.0979012345        7.9873491217        0.8182227827
 C        -8.3452312137        7.5284932430        1.5618143758
 O        -9.0534997535        6.7271968293        1.0191106314
 C        -8.5699476988        7.9313526564        3.0457389707
 C       -10.1547262391        7.7187381983        3.3429160775
 O       -10.7300410103        6.6348202399        3.0559237983
 C       -10.8685211765        8.7295137948        4.3454520910
 C       -12.3922978453        8.6596330300        4.0247802481
 C       -12.6038127327        8.9330210534        2.3386528495
 O       -11.6309772719        9.0388324691        1.5954214408
 C       -14.0648138133        9.0969288872        1.7237513148
 C       -14.4308337654        7.9615651749        0.7490115242
 O       -13.4413947361        7.5170486935        0.1010651544
 C       -15.8760282379        7.5481316581        0.5310232279
 C       -15.0028974125        9.2380223712        2.9168921008
 C       -14.1126653314       10.5282352817        0.9572070131
 C        -7.7498023603        6.9391727182        4.0837231887
 C        -7.9831111461        9.3417322533        3.4480163970
 C        -6.7907279704        4.8354791485       -3.4623377138
 C        -7.7647169476        7.3232589712       -3.6864910193
 C       -13.0020106278        3.2140515906       -4.2183428845
 C       -14.3770145533        3.4408343307       -2.1934431175
 C       -11.6139551761       -3.6393474475       -0.7484500192
 C       -11.3863030867       -1.8242705690        1.0622142799
 C        -3.9618722229       -2.6897737730       -0.3686998020
 C        -5.4627087993       -3.7212008190        1.2941020293
 H        -5.6063134572        0.7165683971        1.7624049109
 H        -5.7703931506        0.5470132761       -0.1106608193
 H        -4.1613933100        0.0495527931        0.9018011534
 H        -7.5037240901       -4.5563145985       -0.3095679649
 H        -6.9726161819       -4.5071222373       -1.9408411416
 H        -9.2132068230       -4.0587627820       -2.0573608284
 H        -8.4971962938       -2.4937872879       -2.2042972108
 H       -13.3394886372       -1.1796519485       -1.0878311882
 H       -12.7897863996       -1.9111958815       -2.7747326101
 H       -14.0456254104        0.0993557352       -3.2619033870
 H       -12.2721397776        0.3398293420       -3.6579677288
 H       -10.2492314424        4.1527007141       -3.5925510329
 H       -10.4598766308        2.7607265987       -2.5374707786
 H        -8.5684192888        3.7488435491       -1.5308773681
 H        -9.8682971936        4.5475526770       -0.7543407339
 H        -8.4972724180        7.9984989020       -1.0051595183
 H        -6.9677274374        8.6802475735       -1.3083604433
 H        -6.6280350276        8.8921779874        1.1081561403
 H        -6.3825918183        7.2081668851        0.9933074982
 H       -10.5876065768        9.7982293673        4.2197972813
 H       -10.6067423767        8.4009794939        5.3651641276
 H       -12.9151937306        9.4465288535        4.5569893386
 H       -12.7239952611        7.6448768910        4.2935938712
 H       -16.4700619228        8.4653192739        0.7929607606
 H       -16.1014487874        6.7363947793        1.2603527161
 H       -16.1200659613        7.0951697703       -0.4904690294
 H       -15.8622146187        9.7499256145        2.7126834373
 H       -14.4845997422        9.8419499768        3.7108278701
 H       -15.3012908982        8.2684079837        3.3141661839
 H       -13.2479629423       10.5049323685        0.1624201481
 H       -13.9601136714       11.4165277834        1.6086582454
 H       -15.0043211619       10.7451521214        0.3954745122
 H        -6.7394163435        7.0717292142        3.8477613804
 H        -8.0531896882        5.8868046587        3.8461960598
 H        -8.0851837960        7.1933726788        5.0158016914
 H        -7.1413987186        9.5741669300        2.8700956670
 H        -7.9909805883        9.4124623343        4.5862911250
 H        -8.7991432307       10.0107586625        3.1870718376
 H        -5.7204550442        4.8167269356       -3.5665546057
 H        -7.2398907257        4.6372923383       -4.4502959506
 H        -6.9745706141        3.9529734781       -2.8490102046
 H        -8.7161833438        7.8158253678       -3.5295511208
 H        -7.7581284614        7.1305635396       -4.7863268082
 H        -6.9218513901        8.0264361803       -3.5621808885
 H       -12.5625445207        2.3671590732       -4.7925712478
 H       -12.4895624234        4.0870695797       -4.4874427178
 H       -14.0058193941        3.3679777352       -4.6647001626
 H       -15.2335268218        3.0229971766       -2.6978238183
 H       -14.4419344702        4.4675825307       -1.9770080652
 H       -14.3719014510        2.9544876714       -1.2222234858
 H       -12.6249633061       -3.3529720949       -0.8058280014
 H       -11.7066041251       -4.4462588713       -0.0029709378
 H       -11.2886604387       -4.2397360187       -1.6226090563
 H       -11.0532836103       -2.4895389680        1.7655223232
 H       -12.4216466079       -1.8198801963        0.9653056894
 H       -11.0284888658       -0.8832851874        1.4347318943
 H        -3.9045272976       -3.6725394257       -0.8578700756
 H        -3.0921264474       -2.7572110667        0.1616630092
 H        -3.8615068555       -1.7675484742       -0.9575150050
 H        -6.3359473078       -3.7137104054        1.9589456086
 H        -4.6278269963       -3.6881959060        1.9863351020
 H        -5.4078366970       -4.6504529283        0.7156225349
 Na      -11.0062647544        6.9131933963        0.1960592593
