117

 C        -5.0983719050       -0.2223231651        1.1018636230
 C        -5.7210706664       -1.5047787538        1.6605741582
 O        -6.2096506325       -1.6454946983        2.7298946113
 C        -5.6432740594       -2.6639508945        0.5973842167
 C        -6.6130727439       -2.6366536022       -0.6764724193
 O        -6.6280224169       -1.7136466080       -1.5220190330
 C        -7.4122607142       -4.0162624593       -1.0389471251
 C        -9.0223312568       -3.7285342694       -1.2282678068
 C        -9.3998653753       -2.6193239256       -0.2748691745
 O        -8.6694251781       -2.1040654636        0.5912652416
 C       -11.0437199384       -2.2727683639       -0.2623450160
 C       -11.0898148169       -1.1779706561       -1.4008050904
 O       -10.1028178551       -0.4766512138       -1.7180262929
 C       -12.4741227610       -0.9077809340       -2.0537873171
 C       -12.8115198088        0.3504826565       -2.7212699424
 C       -12.7129069143        1.5981093101       -1.8911454006
 O       -12.3370904266        1.7208629945       -0.7823966934
 C       -13.1230231037        2.9968594461       -2.5807055873
 C       -12.0806878126        4.0456933480       -1.9506155198
 O       -12.3371695964        4.9202262190       -1.1613965650
 C       -10.6148451257        3.7507908841       -2.4529291486
 C        -9.4653236624        4.4940217949       -1.6099095535
 C        -8.9668833625        5.8887082375       -1.9853725337
 O        -9.6409226170        6.8647475150       -1.6817119393
 C        -7.5929084093        6.0801428414       -2.7894926774
 C        -6.6860370564        6.6068433800       -1.6222006454
 O        -5.6103033707        6.0089371120       -1.5367999275
 C        -6.9076198205        7.9601590840       -0.7909462713
 C        -6.9614474940        7.7984264739        0.6960866432
 C        -8.2269360310        7.5897241612        1.4358475503
 O        -9.0446096454        6.7893079462        0.9439466292
 C        -8.5830546649        8.1315539995        2.8479848196
 C       -10.0772919776        7.7291580820        3.2510497468
 O       -10.5008522864        6.7068599428        2.9078188471
 C       -10.8923115989        8.7512232800        4.3440725525
 C       -12.3374798779        8.7866813417        3.8057280939
 C       -12.4272171782        8.9181074437        2.2269386320
 O       -11.5909152622        8.7892044170        1.3817955957
 C       -13.9143817909        9.1771066702        1.6137490815
 C       -14.2166594185        8.0193392718        0.7052094917
 O       -13.3857232969        7.3544878200        0.1698068506
 C       -15.8185760918        7.7224066777        0.4651815902
 C       -14.9508801256        9.2688011362        2.7547951104
 C       -13.8081040995       10.6058460372        0.8984544192
 C        -7.6263579202        7.2736948281        3.8266419146
 C        -8.3746422357        9.7496400019        2.9372350265
 C        -6.9859373342        4.8870142767       -3.3561677836
 C        -7.5831368110        7.2263605453       -3.9290088686
 C       -12.7614406257        2.9850772472       -4.1500349618
 C       -14.6128776030        3.3939643924       -2.4022728328
 C       -11.8686927728       -3.5678433357       -0.5094171648
 C       -11.3675925086       -1.4882799495        0.9779564950
 C        -4.2125209470       -2.6725107897       -0.0867385874
 C        -5.8324320465       -4.0848438601        1.3607604883
 H        -5.0197720164        0.4839286327        1.8626825672
 H        -5.9320785444        0.0518816725        0.4702556611
 H        -4.1832714514       -0.3098461824        0.6710141040
 H        -7.2619294225       -4.9042822200       -0.3565986336
 H        -7.1187156058       -4.5060330533       -2.0023356675
 H        -9.4672020933       -4.6437730279       -0.8914058154
 H        -9.3804428875       -3.4794064245       -2.3135446971
 H       -13.1793067835       -0.8442032046       -1.1986034441
 H       -12.4883718387       -1.7754814291       -2.6509902964
 H       -13.8591860600        0.2775028091       -2.7950008833
 H       -12.4886381128        0.7001098302       -3.7397255749
 H       -10.4733732668        4.0856069354       -3.4856762005
 H       -10.5141844527        2.6673411952       -2.4345564982
 H        -8.5052764875        3.8343410164       -1.5939131543
 H        -9.8211291668        4.4933205720       -0.5140342575
 H        -7.9221030708        8.2721396499       -1.1127664725
 H        -6.2171517803        8.7862549659       -1.0943223116
 H        -6.3776195205        8.6754486632        1.1517358656
 H        -6.2916064348        6.9627617765        1.0538593691
 H       -10.5902023444        9.8123674778        4.3302958662
 H       -10.7641661711        8.3139901978        5.3427361929
 H       -12.9023503211        9.6256783519        4.2298370844
 H       -12.8673644602        7.8376103614        3.8706449659
 H       -16.4269889169        8.5634943122        0.7490570703
 H       -16.2790517910        6.8134893394        0.9367575277
 H       -15.9141447003        7.6358315519       -0.5991481563
 H       -16.0685393613        9.3043369621        2.4327149811
 H       -14.7676281476       10.0867705165        3.3699369236
 H       -14.7896786948        8.4006385090        3.3615292576
 H       -13.2284700411       10.7851826497        0.0345532342
 H       -13.5037404454       11.3412599906        1.6940508072
 H       -14.8359975745       11.0404048861        0.7298140736
 H        -6.6196607170        7.7721828284        3.9521416944
 H        -7.5435497492        6.3041969400        3.4143389047
 H        -8.2769780880        7.2845774823        4.7845767046
 H        -7.3125818677       10.0178514154        2.7692361792
 H        -8.6993249383        9.9822999244        3.8639230678
 H        -9.0176191793       10.2986331646        2.1965512595
 H        -5.9298605337        5.1391301847       -3.5783720136
 H        -7.4419427103        4.5488988792       -4.2973568537
 H        -6.7938941112        4.0789779412       -2.6429106062
 H        -8.2564648909        8.0364176724       -3.7750313300
 H        -7.9355305783        6.6883399757       -4.7735104898
 H        -6.6123815063        7.6693533717       -4.1222973168
 H       -11.6614301053        2.9023284441       -4.3610894990
 H       -13.2284922018        3.8481828190       -4.7197659199
 H       -13.1276802837        2.0980765295       -4.7229473233
 H       -15.2842012800        2.5512543006       -2.4425634600
 H       -14.7311273481        4.1697576256       -3.1880711790
 H       -14.8175616843        3.9319000656       -1.4776314499
 H       -12.7792845519       -3.6970221943        0.1394139551
 H       -11.4084250944       -4.4160865897       -0.0414215948
 H       -11.9695627548       -3.8885591713       -1.5106186249
 H       -11.4815280623       -2.2019036383        1.9205107405
 H       -12.3625561031       -0.9719288593        0.7939941459
 H       -10.4936363866       -0.7978553420        1.2726704833
 H        -4.1437051884       -3.6300632194       -0.5116758586
 H        -3.3184614285       -2.7545038673        0.6015358858
 H        -3.9939937488       -1.7852695089       -0.5982270935
 H        -6.9268172054       -4.0667264728        1.5491035487
 H        -5.5299598649       -4.2346038076        2.4316042452
 H        -5.5269044185       -4.9155070252        0.7360160058
 Na      -11.3889079927        6.7452715039       -0.0592053218
