117

 C       -11.3818592698       -6.1000689541        2.9290160292
 C       -10.3729999591       -5.5247697240        1.8635293923
 O        -9.8129258332       -6.2624120228        1.0803766809
 C       -10.0277223336       -3.9303939346        1.8733970930
 C       -10.9890379320       -3.0892192051        0.8510759127
 O       -10.4715087017       -2.2658039002        0.1610670554
 C       -12.4838241788       -3.3109199173        0.8333455043
 C       -13.2046054603       -3.1207539089       -0.4297464712
 C       -12.6250698078       -1.8808459304       -1.2424536188
 O       -11.9663753017       -2.1189171650       -2.2321388219
 C       -13.1254357176       -0.3679549237       -1.0400265665
 C       -11.8653391177        0.5518805282       -0.7485241151
 O       -11.9336079405        1.4752229868        0.0119386823
 C       -10.6532352071        0.4234025081       -1.6325164734
 C        -9.3737640792        0.9532551381       -0.8290523537
 C        -8.9794239118        2.3366524425       -1.2164518667
 O        -8.9564742321        3.2106887917       -0.3526385902
 C        -8.4336186807        2.6713049265       -2.6347953166
 C        -9.5291452871        3.5873394513       -3.3045110040
 O       -10.6533087020        3.6370196259       -2.8281167744
 C        -9.1865351074        4.4358968551       -4.4982568260
 C        -9.9813976007        5.6915102192       -4.5327613032
 C        -9.6350104690        6.6390770714       -3.3686299982
 O        -8.6665571063        6.3364622358       -2.6778847044
 C       -10.6484494570        7.7886352796       -2.9788203780
 C       -10.0807439955        8.4607795124       -1.5824740379
 O        -9.6547073754        7.7894913029       -0.6732967071
 C       -10.1587426981       10.0085092149       -1.3842949385
 C        -9.6558264525       10.4180381779       -0.0346633490
 C       -10.5280245479       10.0709347144        1.2681854450
 O       -11.5191747736        9.4247366669        0.9928079822
 C       -10.0258693490       10.4339745864        2.6620166733
 C        -8.8299133591        9.3908527049        2.8137476708
 O        -7.7731422245        9.6171208225        2.3218807029
 C        -8.9859512915        8.1615686449        3.8675455352
 C        -7.8777203426        7.1931025172        3.8785023501
 C        -7.9357818024        6.1582720005        2.6613357592
 O        -8.9178939600        6.1964573603        1.8880607957
 C        -6.6544275413        5.1747366710        2.4761243329
 C        -5.9937384784        5.5519618997        1.1632421977
 O        -6.6584495290        5.5286315865        0.1521779514
 C        -4.5611102770        6.1862112694        1.1642498130
 C        -5.6395464749        5.2003082755        3.6835147322
 C        -7.2931378942        3.6764014566        2.4555536080
 C        -9.4316194018       11.8498480936        2.8552139076
 C       -11.2336394510       10.3029069871        3.6633090763
 C       -10.6015895841        8.7867144454       -4.1116691195
 C       -12.0704185990        7.3096158192       -2.5914739829
 C        -7.0978163487        3.3458449441       -2.4553119471
 C        -8.2134512202        1.4459130650       -3.6322365717
 C       -13.7570581963        0.0911993980       -2.4341206848
 C       -14.0482237698        0.0234504108        0.0772920948
 C       -10.2291598746       -3.3673386920        3.3058624136
 C        -8.5629580518       -3.6590393168        1.5092820908
 H       -10.7800012328       -6.3168496029        3.8054007038
 H       -11.7225942032       -7.0941650865        2.6566662976
 H       -12.1890824257       -5.3599554827        3.1040654658
 H       -12.9379704306       -2.5308688055        1.3995506316
 H       -12.7057619366       -4.2852532882        1.3988290199
 H       -14.2655943645       -2.9871817379       -0.2211205500
 H       -13.0672197582       -3.9295948262       -1.0814761489
 H       -10.8854303470        0.9436005581       -2.5222829969
 H       -10.2652086640       -0.5585998440       -1.9320917708
 H        -8.5662711734        0.2227990803       -1.1012051396
 H        -9.5057850541        0.9266816816        0.2780166195
 H        -9.3720391068        3.8566274009       -5.4342965807
 H        -8.1127131812        4.5917506881       -4.7139007668
 H       -11.0494461001        5.5287922029       -4.5409980977
 H        -9.8005980236        6.1718627084       -5.5561261714
 H       -11.1808674080       10.4461931725       -1.5538065107
 H        -9.5288055192       10.4679034840       -2.1691617139
 H        -9.4790756844       11.5063695186       -0.0231641840
 H        -8.6874503385        9.9062788410        0.1390250348
 H        -9.9266819182        7.6564870562        3.6183189093
 H        -9.1897193915        8.6274342040        4.8532466395
 H        -7.7607295108        6.7077910618        4.8984647283
 H        -6.9400574866        7.8221291392        3.7658641414
 H        -4.7059697450        7.1694165870        1.5495952759
 H        -4.1428892794        6.3576678527        0.0984743544
 H        -3.8225714919        5.7212118840        1.7928025357
 H        -6.0272369845        4.5419930334        4.5307375862
 H        -5.2516322399        6.1507645003        4.0833275878
 H        -4.7255068808        4.7610084190        3.3219976710
 H        -6.5824452432        3.0741994374        1.9502077424
 H        -8.2331035222        3.7287587057        1.8570017099
 H        -7.3605164588        3.2478045738        3.4441543827
 H        -9.2277495175       12.0886070823        3.9044578412
 H       -10.1698738199       12.5729280220        2.3868904046
 H        -8.6005764398       11.9896156489        2.2167264275
 H       -11.1065159323       11.0062982475        4.4548654748
 H       -11.2616015756        9.2333493049        3.9380607582
 H       -12.1255858663       10.4477393632        3.0554359612
 H       -11.1432355762        8.3509415813       -4.9879954126
 H        -9.6251768453        9.0798057755       -4.4962503608
 H       -11.1364406131        9.6408831044       -3.9366280677
 H       -12.5829921713        6.6839390664       -3.2936485769
 H       -12.7398108812        8.1780902811       -2.4934883745
 H       -11.9212867892        6.7328127546       -1.6630176947
 H        -6.7256381631        3.7906268614       -3.4476146875
 H        -6.3660960028        2.7595313388       -1.9660397261
 H        -7.1844394898        4.1835382496       -1.7702884509
 H        -8.9941800913        0.7148869571       -3.6586598531
 H        -7.3237945974        0.9311965087       -3.3193397937
 H        -7.9931731853        1.8169667950       -4.6046115276
 H       -14.7818759774       -0.2595719840       -2.5224774792
 H       -13.3162754284       -0.5207751741       -3.2040534151
 H       -13.6115466139        1.1797951926       -2.5525659403
 H       -15.0049123546       -0.3867870218       -0.1635016862
 H       -14.0530220345        1.1073987898        0.0994379892
 H       -13.6823904279       -0.2026082423        1.0826046366
 H       -11.2949939682       -3.4388412371        3.6580217320
 H        -9.9791315780       -2.3042299043        3.2148765634
 H        -9.5310734807       -3.7356737154        4.0388747585
 H        -8.3524004063       -2.7036241410        1.8909878231
 H        -8.4600405009       -3.5694195768        0.4694946923
 H        -7.9267143503       -4.4757671352        1.7613031419
 Na       -8.8636185817        5.7065996902       -0.3442826349
