117

 C        -8.1628696754       -6.4217196754        4.1643937306
 C        -7.3437764300       -5.7280399544        3.0268632957
 O        -6.5729891389       -6.3078914645        2.2928348211
 C        -7.5427106639       -4.1007408247        2.7643804362
 C        -9.0245301535       -4.1661709885        2.1693215913
 O        -9.4367883462       -5.2310166315        1.6841355754
 C       -10.0087338664       -2.9051252818        2.2073307917
 C       -11.3541326790       -3.2309806803        1.4833622514
 C       -12.0922193755       -1.9816101807        1.0067888392
 O       -11.9656718921       -1.6630025526       -0.1474958157
 C       -12.9205590230       -1.0680727441        1.9331714209
 C       -11.9349732878        0.0532936094        2.3177671693
 O       -11.3133193804        0.1146342954        3.3672883872
 C       -11.7765815442        1.1446180425        1.2922936207
 C       -10.3142315389        1.5697245074        1.2763714964
 C        -9.9334306878        2.5509907410        0.1753485106
 O        -9.5265253733        3.6862052854        0.3814559645
 C       -10.1239626669        2.0699760791       -1.3565437315
 C       -11.4357228076        2.6258636983       -1.9297910865
 O       -12.3383376908        2.9853210139       -1.1933115246
 C       -11.6804052283        2.7798935227       -3.4569150366
 C       -12.4390132868        4.0619455583       -3.6448089479
 C       -11.7384695527        5.2573792016       -2.9470807563
 O       -10.6159718307        5.0542211307       -2.5337494103
 C       -12.5428792560        6.5308512338       -2.5063183376
 C       -11.4492669713        7.7558728973       -2.6361784878
 O       -10.6315795421        7.6648083439       -1.7301591978
 C       -11.2514272267        8.8707710933       -3.7242046944
 C        -9.9756148573        9.8126344015       -3.3312794290
 C       -10.2753534146       10.5051587311       -2.0609889191
 O       -11.3625507928       10.5457035767       -1.4886902911
 C        -9.0732320864       11.4226381049       -1.4274612931
 C        -8.3767499979       10.4645502796       -0.3744420301
 O        -7.1894456340       10.2047814399       -0.6387808204
 C        -8.9767401048       10.0732404537        0.9646588236
 C        -7.9198143102        9.3655807076        1.8508277921
 C        -7.7087942461        7.8781418237        1.2852469018
 O        -8.7079849496        7.1958104984        1.0959741796
 C        -6.2683501330        7.2083984664        0.9694464855
 C        -6.2597940159        6.8462181300       -0.5254664451
 O        -7.2171136019        6.3088707013       -1.0044723560
 C        -4.9802163865        7.1404416581       -1.3889579054
 C        -5.1543569681        8.1494338989        1.3135970470
 C        -6.3114064856        5.7869970802        1.7142817071
 C        -8.0667553545       11.9377876894       -2.4182131250
 C        -9.7205646626       12.5911413924       -0.7094821802
 C       -13.8346833041        6.8123235426       -3.3431617840
 C       -12.9475678779        6.2350833095       -1.0080663466
 C        -8.7893204639        2.5674873492       -2.1293065012
 C       -10.2789029231        0.5211874942       -1.5962365530
 C       -14.1591987299       -0.5260594993        1.0358004905
 C       -13.4030497468       -1.8355059897        3.1628923101
 C        -7.5208596931       -3.1261070663        4.0594301981
 C        -6.5020610457       -3.4989171686        1.7118185484
 H        -7.4995313583       -7.2003185841        4.5216614543
 H        -8.9583696987       -6.9033360700        3.6242619826
 H        -8.5530418457       -5.7341190016        4.9534838392
 H        -9.4335318868       -2.1036599101        1.7390420704
 H       -10.2907720829       -2.5474650152        3.2456163320
 H       -11.9310408114       -3.8981244270        2.0867393902
 H       -11.1653980490       -3.7709036418        0.5894411785
 H       -12.5488569454        1.9218565950        1.5548960045
 H       -12.0875922330        0.7715994648        0.2780952549
 H        -9.6295289394        0.7783568459        1.1821644791
 H       -10.0797697990        2.0639289842        2.2132067818
 H       -12.1814544407        1.9673011837       -3.9143622167
 H       -10.8227311397        2.8647441378       -4.1520804120
 H       -13.4537113786        3.9770846715       -3.2437014694
 H       -12.4984133387        4.3209867071       -4.6534465100
 H       -12.1029369109        9.5765141627       -3.5648085869
 H       -11.1762812247        8.4584667841       -4.7935349314
 H        -9.8559971075       10.6006106344       -4.0297752394
 H        -8.9775348634        9.2591377932       -3.1024013193
 H        -9.8400166379        9.4709076691        0.8444983920
 H        -9.3140566361       11.0291326991        1.4459877703
 H        -8.3533317529        9.1903662343        2.8789484173
 H        -7.0097669790        9.8194271633        2.0335676700
 H        -4.9570083667        8.2132520085       -1.5223380720
 H        -5.0710661241        6.7610515300       -2.3590494787
 H        -4.0218245559        6.9588423888       -0.7652206322
 H        -5.2175319003        8.3771114195        2.3621031371
 H        -5.1600824924        9.0859917025        0.7453504175
 H        -4.1819914214        7.7004841793        1.2655290170
 H        -5.9846928382        5.9436453473        2.7273544064
 H        -5.4782083377        5.0523234548        1.3447605071
 H        -7.2287506465        5.3039941912        1.5307808628
 H        -7.5184730279       12.8031050983       -2.0661266525
 H        -8.5643240634       12.4200453204       -3.2457355133
 H        -7.3793287296       11.0607785938       -2.5691207303
 H        -8.9656069055       13.1903356254       -0.2732875133
 H       -10.5393440559       12.4288766469        0.0509841720
 H       -10.0908007220       13.2503551611       -1.4550071315
 H       -14.5856523638        5.9761162307       -3.4441078650
 H       -13.5709090738        7.1010642050       -4.3810689674
 H       -14.4558311656        7.5671695491       -3.0059506876
 H       -13.3619595245        5.1571414646       -0.8851235244
 H       -13.5264937790        7.0657851112       -0.6760449112
 H       -12.0325620915        6.3358503748       -0.3242170526
 H        -8.6870651888        2.0702827911       -3.1545966243
 H        -8.0041986418        2.4307710101       -1.3691035161
 H        -8.8560866518        3.6555567815       -2.2494947730
 H       -11.0124615918        0.0151083517       -0.9239512532
 H        -9.3646366453        0.0118108844       -1.3294711504
 H       -10.4305150705        0.2744662372       -2.6883785275
 H       -15.0444411827       -1.0898693797        1.3638071852
 H       -13.9340237850       -0.6428721642       -0.0135075304
 H       -14.2782632425        0.5755391417        1.2707732695
 H       -13.9043336189       -2.7617977694        2.8062587789
 H       -14.0832930312       -1.3074400940        3.8908901578
 H       -12.4735980631       -2.0802613753        3.6927201655
 H        -8.2611697497       -3.3074306126        4.7684698314
 H        -7.4921129579       -2.0873064834        3.7587120146
 H        -6.6128502217       -3.0682731140        4.5431812210
 H        -5.5328542973       -3.2309451811        2.0755956228
 H        -7.0289066135       -2.6058427517        1.3571437712
 H        -6.3365831057       -4.0947249791        0.8513064867
 Na       -9.3162697951        5.7619685051       -0.6851248204
