117

 C       -13.3481445483       -0.0559228687       -9.4865406956
 C       -12.2112971746       -0.9623702616       -9.2070388177
 O       -12.3796775265       -2.1085450299       -8.7622425717
 C       -10.6652450222       -0.3927706213       -9.0006297367
 C       -10.6313361469        0.1046291593       -7.4872460087
 O       -10.5968447697        1.2978227713       -7.3060908328
 C       -10.7111339868       -0.9348190532       -6.4163946022
 C        -9.9968159907       -0.5156991055       -5.1118598701
 C       -11.0051446617       -0.4268334920       -3.9968285860
 O       -12.2036344148       -0.5377423807       -4.2206471247
 C       -10.5050158411        0.0369814039       -2.5865481867
 C       -10.8805917978        1.6277207953       -2.4206571584
 O       -10.0140344884        2.4368978190       -2.6811245398
 C       -12.3118747450        1.9430759123       -1.9276128924
 C       -12.5085878006        3.4625940256       -1.8168298527
 C       -11.7268992703        4.2413126925       -0.8167342994
 O       -11.1512171259        3.7242791470        0.1408061647
 C       -11.7215541822        5.8312621643       -1.0875575193
 C       -11.7989517015        6.4807038560        0.3273526007
 O       -10.8665080799        6.3696677209        1.0743353469
 C       -13.0902984503        7.1306027879        0.7774684201
 C       -13.1699077428        7.2135376713        2.2673331060
 C       -11.9467333146        7.8459152170        2.9079175041
 O       -11.3664487572        8.8508703089        2.5240782858
 C       -11.3403303875        7.3104778953        4.2236231925
 C        -9.7435278733        7.3099937479        4.0035135707
 O        -9.2356605050        6.2933249635        3.5840492731
 C        -8.8625704835        8.6404185240        4.3410299295
 C        -7.3745998595        8.3478654199        4.2213281415
 C        -6.9697684407        7.4236503472        5.4483111455
 O        -7.5835668114        7.3320412290        6.5060324780
 C        -5.7617552527        6.4344226627        5.1823688548
 C        -6.1909638758        5.0390625434        4.8218501048
 O        -5.9535227011        4.6164065939        3.6627760398
 C        -6.9741782625        4.1390820491        5.8048554159
 C        -7.2182997299        2.7479573642        5.2286108063
 C        -8.0621133431        2.7487566721        3.8769881948
 O        -8.9642061638        3.5498577402        3.8563704827
 C        -7.7096076188        1.8012107829        2.7516727271
 C        -6.8413609680        2.6459126161        1.6874270453
 O        -7.4305022055        3.5704002915        1.1876921896
 C        -5.3851032655        2.2505845133        1.3867587971
 C        -7.0842650236        0.5295090043        3.3463167899
 C        -9.0420047809        1.2212273554        2.0924331958
 C        -4.8617681487        6.9561273062        3.9714814210
 C        -4.9397980023        6.2738267163        6.5268966200
 C       -11.7713072873        8.2778327787        5.3966222359
 C       -11.7481224657        5.7774546212        4.4593876416
 C       -10.2816321779        6.1374961480       -1.6275203706
 C       -12.7788879953        6.3629051492       -2.0287392960
 C       -11.2440918444       -0.8327100237       -1.5268323340
 C        -9.0269093657       -0.0741623186       -2.4321433697
 C        -9.7744874250       -1.6718526487       -9.3274169049
 C       -10.4866294080        0.7929785557      -10.0486814454
 H       -14.4291623249       -0.4809695127       -9.4572406565
 H       -13.4226072598        0.5103939276      -10.4828019659
 H       -13.4353368404        0.7371283450       -8.7785326098
 H       -10.3936047092       -1.9663597762       -6.7179292014
 H       -11.7742691328       -1.1204433604       -6.1369114182
 H        -9.4711096924        0.4795918129       -5.2743209139
 H        -9.3089685664       -1.3336559177       -4.9806557372
 H       -12.5502819829        1.4305593739       -1.0098189840
 H       -12.9603038116        1.6709917003       -2.7968301192
 H       -13.5079744958        3.7879312950       -1.5671773805
 H       -12.1063580231        3.8292123568       -2.8222622675
 H       -13.9382830548        6.4827187633        0.3232630137
 H       -13.3254886075        8.1039233349        0.4488140821
 H       -13.3905476121        6.2206882951        2.6728368403
 H       -14.0806236166        7.8307280091        2.5404133420
 H        -9.1249733964        8.8911468630        5.4153368217
 H        -9.2547881264        9.5226912758        3.7497984186
 H        -6.6744207279        9.2496191666        4.0524086887
 H        -7.3184952054        7.6200016642        3.3918583120
 H        -8.0307308018        4.5567691875        5.9690744513
 H        -6.5164215380        3.9768957327        6.8097292785
 H        -7.8364973702        2.0963795072        5.8144498986
 H        -6.2400156454        2.2985975536        5.0510294743
 H        -5.3647373883        1.1822764021        1.1548303198
 H        -4.8185906211        2.4132902122        2.3888297874
 H        -5.0176322251        2.8877521973        0.5713977074
 H        -7.6758194695        0.1437993585        4.2550587190
 H        -6.0881821263        0.6912809937        3.7801796693
 H        -6.9711671475       -0.1916494213        2.5806279997
 H        -9.5070357384        1.9786092659        1.3915609274
 H        -9.7502994203        0.9616133660        2.8497449796
 H        -8.7880802420        0.3269115381        1.5929721718
 H        -4.9483227264        8.0139214697        3.9381729906
 H        -5.2572848409        6.4956656716        3.0853136495
 H        -3.7470085025        6.6771527776        4.0580783989
 H        -4.2043587527        5.4091377774        6.2725216277
 H        -5.6877616934        5.9079613560        7.2651175900
 H        -4.2858005999        7.1552590419        6.8421523675
 H       -12.8744009932        8.2376387104        5.4801133741
 H       -11.3469869018        9.2345867869        5.2036418120
 H       -11.3754800191        7.8670280961        6.3675239829
 H       -11.4150829483        5.1810141149        3.6829923530
 H       -12.8167728492        5.5958015037        4.6175156206
 H       -11.3512449875        5.5247582390        5.4123739425
 H       -10.1344406825        6.8747637913       -2.4519616929
 H        -9.8611613008        5.1722582655       -1.9782242265
 H        -9.6854564094        6.6138788397       -0.9627744027
 H       -12.9077322277        5.9589182966       -3.0213406771
 H       -12.6743403797        7.4777005374       -2.0844463659
 H       -13.7764808011        6.1126336592       -1.6794013174
 H       -10.9191402858       -1.8129751752       -1.6765081398
 H       -12.2628953507       -0.8207689755       -1.8222480081
 H       -11.1979579076       -0.5368738388       -0.4863168994
 H        -8.6130698401       -1.0259932849       -2.0121096705
 H        -8.6198556073        0.7162127473       -1.7839180869
 H        -8.5974629603        0.1865152509       -3.3773842745
 H       -10.2504025609       -2.5590803405       -8.8264233364
 H        -8.7532193923       -1.5063870447       -9.1660466019
 H        -9.9150435236       -1.9209470158      -10.3608065114
 H       -11.1657283317        1.6934745690       -9.8803300744
 H       -10.7229235288        0.3019331053      -11.0006753700
 H        -9.4853077950        1.2575120263       -9.9842901361
 Na       -9.6479536073        4.5544113695        1.8175759503
