117

 C       -10.1523422757        7.4346471520        0.1306761203
 C       -10.4276467355        6.0046787171       -0.0118979074
 O        -9.6348227164        5.3414429028       -0.8008027321
 C       -11.4700385229        5.2550999044        0.8317868807
 C       -12.2387173455        4.3023261151       -0.1853648336
 O       -11.7226405692        3.2226868012       -0.5212202583
 C       -13.5683631090        4.6387243026       -0.8117821271
 C       -13.4788329383        4.6509411228       -2.3914639246
 C       -12.5073036624        5.7835682986       -2.9373047902
 O       -12.1487834182        6.7018244141       -2.3032889473
 C       -11.8784631421        5.4592983966       -4.3981610927
 C       -10.4193634503        4.6253565919       -4.3282510320
 O       -10.1692658185        3.8813578628       -3.3838539713
 C        -9.4682475233        4.6622303910       -5.4563498835
 C        -8.4366168357        5.8074002985       -5.1488196286
 C        -7.2647477225        5.6531119973       -6.0814205749
 O        -7.5180193945        5.6707824428       -7.2570733675
 C        -5.7896698388        5.4717077851       -5.4966878985
 C        -5.5834596245        4.4108476072       -4.3460963170
 O        -5.2630576418        4.7014680581       -3.2040513702
 C        -5.8247716308        2.9764896260       -4.7474487584
 C        -5.5417582940        2.1497676907       -3.4942162784
 C        -6.6952358686        2.0044534352       -2.3657323009
 O        -7.8755193381        2.3240155855       -2.6818289396
 C        -6.2881125295        1.5978511489       -0.9192853534
 C        -7.4933957611        0.7101445801       -0.4036668802
 O        -8.3882766023        0.2147567892       -1.0061793032
 C        -7.3978074651        0.3983079895        1.1409048188
 C        -8.4891406767       -0.5283332695        1.6136473117
 C        -9.7714096183        0.1958717407        1.5116395283
 O       -10.0375502560        1.2376985193        0.9272342551
 C       -11.0840205957       -0.5239821192        2.2587549542
 C       -11.1939207538        0.2809307440        3.5750545750
 O       -10.2522693818        0.9358060820        3.9382130281
 C       -12.4421984729        0.3495925457        4.4219597597
 C       -12.2028542320        1.3229860983        5.6433674631
 C       -12.8015319406        2.7626726331        5.5704731746
 O       -13.0696021562        3.3212633625        4.5353514263
 C       -12.6767388492        3.5358709992        6.9816931352
 C       -14.1121056822        3.3043805307        7.6631534894
 O       -14.0721907005        2.5819768977        8.6985119220
 C       -15.3846353781        3.8395506950        6.9862219851
 C       -11.5595712625        3.0629835926        7.8860137050
 C       -12.3440266090        5.0266814158        6.7477945786
 C       -12.4308791122       -0.1030637231        1.4388908055
 C       -11.0833179429       -2.0997795736        2.4566633630
 C        -4.9295591215        0.8519874208       -0.8777988188
 C        -6.3181156635        2.9404915948       -0.1262630170
 C        -4.9169527703        5.1525166641       -6.7431215873
 C        -5.5701347846        6.8757055827       -4.8086352820
 C       -12.8655643445        4.4633979776       -5.1028511243
 C       -11.6060727677        6.9151775798       -5.1629814450
 C       -10.4010819100        4.6055055201        1.9552997626
 C       -12.2960509424        6.1452676762        1.7174450689
 H        -9.6847884276        7.6984954162       -0.8068874898
 H        -9.4149446724        7.5091749604        1.0184305814
 H       -10.9729987331        8.1706590122        0.2202436774
 H       -13.9022560250        5.6724570269       -0.4835193746
 H       -14.2279808200        3.9034007150       -0.4707866031
 H       -14.4165432526        5.0495286626       -2.7031528951
 H       -13.2519976777        3.6895388304       -2.6087590492
 H        -9.9748167669        4.8019531384       -6.4131141032
 H        -8.9484988732        3.7787605176       -5.4378365505
 H        -8.1241004302        5.5186078200       -4.1449938284
 H        -8.7346220873        6.8639579920       -5.2678357953
 H        -5.0109419678        2.6941274049       -5.4115365055
 H        -6.8218865011        2.8668621264       -5.1900980806
 H        -4.5385348663        2.4234569666       -3.1376558527
 H        -5.3129672997        1.0935563541       -3.5052882935
 H        -7.3509347838        1.3081122392        1.9152281737
 H        -6.4346193762       -0.1660651931        1.1093247526
 H        -8.4228388905       -0.6858794424        2.6898254982
 H        -8.5019093101       -1.5236782747        1.1049508703
 H       -12.7844529094       -0.7027720381        4.5861949433
 H       -13.2697343440        0.8024895929        3.9253515947
 H       -11.1386370408        1.3079436679        5.8723656298
 H       -12.7008263466        0.8705220956        6.4842453712
 H       -15.5815032739        3.1747239127        6.2085102329
 H       -15.1696236313        4.9378011807        6.7641542100
 H       -16.3204121744        3.8819490153        7.6781155663
 H       -11.6013946344        3.6603198458        8.8025993867
 H       -10.6437007572        3.0935944217        7.2893471250
 H       -11.7336740545        2.0256540109        8.2910631967
 H       -11.3775587252        5.0888854188        6.3124124734
 H       -12.4884915093        5.6551264746        7.6203372814
 H       -13.0000552538        5.3015712249        5.8975246602
 H       -12.6062932550       -0.9623560791        0.8678032268
 H       -12.3559716142        0.7339970128        0.8633193739
 H       -13.3581694746        0.1416554901        1.9152275706
 H       -10.3888493028       -2.5667211324        3.1422216919
 H       -10.7632376378       -2.5206795812        1.4498237016
 H       -11.9553735243       -2.4758797085        2.9104407895
 H        -4.2135839681        1.6280832003       -0.7423882539
 H        -4.8141742396        0.4890398265       -1.8034245338
 H        -4.9073249643        0.0062815428       -0.1955105267
 H        -6.8340092101        3.0606780519        0.8615780905
 H        -6.8297642226        3.7538089039       -0.5185856944
 H        -5.3006817927        3.3928236215       -0.1339804902
 H        -3.9346992477        4.8829523988       -6.7545075367
 H        -5.0045986205        6.1304204365       -7.1919506676
 H        -5.4536270810        4.3666494206       -7.3108586681
 H        -6.1765026372        7.5252849733       -5.5141848071
 H        -4.4789484078        6.9891712406       -4.8102153821
 H        -6.0097813688        6.8191185752       -3.7912049512
 H       -12.5091489857        4.3666553608       -6.1311106528
 H       -13.9170063285        4.8138896467       -5.2554806695
 H       -12.9621052938        3.5662965133       -4.5285397929
 H       -10.8443515096        6.8795667362       -5.9469525228
 H       -11.4531260414        7.6987895671       -4.5120079680
 H       -12.5161273910        7.0057956852       -5.8188213512
 H       -10.6701107736        3.5682567704        2.3968921314
 H       -10.0840405937        5.2555333777        2.6797337946
 H        -9.4546569734        4.3757144128        1.4765303252
 H       -11.8295500688        7.1798124843        1.7846853849
 H       -12.6315598096        5.7981459801        2.6727355091
 H       -13.2821274733        6.3144091402        1.2209866345
 Na       -9.3534544161        3.1347657906       -1.2597309696
