117

 C       -10.1465284837        7.6478657614       -0.1560950624
 C       -10.2943436946        6.1260318194       -0.1518392396
 O        -9.6406308527        5.5908551562       -0.9353598275
 C       -11.2655034926        5.2657213446        0.7523239224
 C       -12.0843107711        4.4247181147       -0.1104613791
 O       -11.7467793914        3.2958101452       -0.4543018627
 C       -13.4029241664        4.8956635029       -0.7317304861
 C       -13.2285670474        4.6203904012       -2.2362343367
 C       -12.1862396885        5.6049634210       -2.9436482956
 O       -11.9103588218        6.7381037421       -2.4619457391
 C       -11.8801561974        5.3155862132       -4.4607638426
 C       -10.5866039828        4.5105322346       -4.2741801497
 O       -10.3848528470        3.7865965036       -3.3061181155
 C        -9.5998466769        4.5272603647       -5.5526234182
 C        -8.4103880492        5.4576244163       -5.2152812479
 C        -7.1842470747        5.3664230087       -6.1545205976
 O        -7.3347824873        5.2807117036       -7.3608649064
 C        -5.7259357703        5.3374990322       -5.3846171155
 C        -5.7494002676        4.3578789943       -4.2337290982
 O        -5.4836605153        4.6911554193       -3.1123168514
 C        -5.9062603213        2.8570125168       -4.6605280239
 C        -5.6820878600        1.8660428362       -3.5465203789
 C        -6.6972652631        2.1257865063       -2.4095698756
 O        -7.7166312966        2.6300821410       -2.6823321992
 C        -6.3587498101        1.7005961656       -0.8310306025
 C        -7.6179359328        0.7823152550       -0.2841539560
 O        -8.4071600902        0.2975627079       -1.1085581832
 C        -7.5737066701        0.2139161142        1.1266185628
 C        -8.7685603580       -0.6396491741        1.4448915898
 C       -10.0562661538        0.2414476614        1.5101563663
 O        -9.9301269324        1.3503244334        1.0889419176
 C       -11.3060321481       -0.1676525963        2.2835596356
 C       -11.0910139520        0.3294828112        3.6823493857
 O       -10.0288597103        0.7190330583        4.1456057161
 C       -12.3557898693        0.4076601424        4.5264023682
 C       -12.4808985075        1.2617219672        5.8136061247
 C       -12.6628192287        2.8203303160        5.6036290293
 O       -12.9466077258        3.2517334395        4.4701797595
 C       -12.6291704204        3.6796634087        6.8581129981
 C       -14.0428829410        3.4475817858        7.6283282929
 O       -14.0655980701        2.8747438142        8.6696257423
 C       -15.3220031955        4.0571493536        6.9611049227
 C       -11.4644766366        3.0567973121        7.8980960558
 C       -12.4040924072        5.2005263075        6.6690266590
 C       -12.5174956095        0.2813549583        1.3428135566
 C       -11.3218313561       -1.7818451221        2.3355253724
 C        -5.0642553504        0.8118146662       -0.7914926072
 C        -6.2082650959        2.9854982689       -0.0634969479
 C        -4.6836987894        5.0114441877       -6.3815093841
 C        -5.4874524809        6.8423119399       -4.9520614378
 C       -12.8531519643        4.4733081615       -5.3120835064
 C       -11.6976684064        6.6748301641       -5.2150107485
 C       -10.4923678604        4.2750653045        1.6374818315
 C       -12.2102067199        6.1493098892        1.6932799590
 H        -9.6448254513        7.8503588994       -1.0972111504
 H        -9.5377516426        7.9302572707        0.6989270506
 H       -11.0243452911        8.1395984706       -0.1996953874
 H       -13.5330227975        5.9530862236       -0.7443451409
 H       -14.2628244447        4.2864121912       -0.2820547241
 H       -14.2201054474        4.8912560800       -2.6418405166
 H       -12.9077927858        3.4935582911       -2.3690599041
 H       -10.1775877422        4.8551751074       -6.3999435432
 H        -9.1558570043        3.4420424130       -5.6936004681
 H        -8.1352354596        5.0347839870       -4.2349570104
 H        -8.6510982748        6.5218705967       -5.1770265603
 H        -5.1510282592        2.6012540842       -5.4010739043
 H        -6.9153917042        2.5573638499       -4.9528573661
 H        -4.7158708800        1.9493667037       -3.0312965153
 H        -5.6717759373        0.7463144738       -3.6754087370
 H        -7.6994058142        1.0262407696        1.7403940446
 H        -6.5782519214       -0.2157856816        1.2651469718
 H        -8.5305718267       -1.0586895427        2.4540108591
 H        -8.9383207582       -1.4496301512        0.7293590296
 H       -12.6044434306       -0.6426812830        4.5437079600
 H       -13.2474007276        0.8427187276        4.0137451004
 H       -11.5090090015        1.1483289981        6.3340563337
 H       -13.2447998480        0.8330927613        6.4372251827
 H       -15.5945063104        3.5119525761        5.9760895722
 H       -15.3724340037        5.1138574540        6.9763395921
 H       -16.1047609580        3.7211841596        7.6374479620
 H       -11.2530252244        3.8055829598        8.6600038820
 H       -10.5706261624        2.9045171528        7.3214119883
 H       -11.8063524684        2.1375845557        8.2979840033
 H       -11.8193785985        5.3341207423        5.7681277679
 H       -11.9838094740        5.5739364264        7.5858357338
 H       -13.3594111345        5.6695790230        6.4881131706
 H       -12.6881186576       -0.4741934806        0.5098955208
 H       -12.6280795554        1.4641188343        1.0611815325
 H       -13.4523731236        0.2744980389        1.9541652668
 H       -10.6846203507       -2.3205324410        3.0050536896
 H       -11.1628769969       -2.1882747857        1.3927511754
 H       -12.2482556886       -2.0652003864        2.8360741198
 H        -4.3173789977        1.3095612719       -0.1559469255
 H        -4.6037814459        0.5933714919       -1.8120441239
 H        -5.4433782008       -0.0676955242       -0.2715595761
 H        -6.1675461973        2.8155437369        0.9309072940
 H        -7.1128737965        3.6198461331        0.1101523855
 H        -5.3834048479        3.6379109601       -0.5153794941
 H        -3.6778389722        5.2403361468       -5.8548084446
 H        -4.6926298732        5.6133280592       -7.2977722038
 H        -4.6759634433        3.9582524929       -6.6586025136
 H        -6.4347713970        7.2275924048       -5.1555297815
 H        -4.6713050752        7.2143419031       -5.5639092850
 H        -5.1935816383        6.8107339504       -3.8866036563
 H       -12.6862832766        4.6566228023       -6.3644465296
 H       -13.8632354278        4.7315877419       -5.0918021666
 H       -12.8418267569        3.4382722849       -4.9585461193
 H       -11.8815337971        6.4637977524       -6.2367551515
 H       -10.5719662955        6.9610678022       -5.1593417717
 H       -12.4872845495        7.3841196298       -4.9197407873
 H       -10.9359263858        4.2994185751        2.5616395883
 H        -9.3994190340        4.6006299065        1.8823379045
 H       -10.3700502311        3.2095799068        1.4681115109
 H       -11.9630710541        7.2030281672        1.7727557418
 H       -12.1637172160        5.7244131236        2.7523434430
 H       -13.2701551699        6.0097228381        1.5680937278
 Na       -9.4893488285        2.9438544367       -0.9967579239
