117

 C       -10.1887671566        7.5809534291       -0.4578228319
 C       -10.1396488451        6.0193353346       -0.3029735134
 O        -9.3625749267        5.2395119010       -0.6765847078
 C       -11.2211415230        5.3836467911        0.8747848972
 C       -12.1235326699        4.4768820465       -0.0039668959
 O       -11.7967528769        3.3927674071       -0.3271452571
 C       -13.3344699604        5.1642351282       -0.6668406421
 C       -13.4646663130        4.8993497227       -2.3148598920
 C       -12.3492007437        5.5236860638       -3.0917736734
 O       -11.6999065639        6.4868761076       -2.6373135846
 C       -11.8312212099        5.2200825853       -4.7432268421
 C       -10.6601546531        4.2459546451       -4.4808424273
 O       -10.6565440330        3.6467254111       -3.4202186642
 C        -9.4408537130        4.2954812083       -5.5397669497
 C        -8.2545741270        5.1634418673       -5.0851627189
 C        -7.0367285621        4.8921461134       -6.0548627270
 O        -7.0434398990        4.4952096770       -7.2088759576
 C        -5.6581133707        5.2151424338       -5.4272837614
 C        -5.7236423570        4.1957425739       -4.2457399726
 O        -5.6418184492        4.5492881477       -3.0805031898
 C        -5.9933975761        2.7637119747       -4.5996492874
 C        -5.7661891821        1.7600303960       -3.4052616401
 C        -6.6280443543        2.2159765929       -2.1883400387
 O        -7.6762179588        2.8553121648       -2.3667890567
 C        -6.2685590097        1.5848136321       -0.7916447101
 C        -7.6050210363        0.6937905030       -0.3254186723
 O        -8.4752378701        0.7168722067       -1.1607433011
 C        -7.5864893764       -0.1674258405        0.8982855903
 C        -9.0530313701       -0.5649037371        1.3369531431
 C       -10.0922990599        0.5598727362        1.5044607609
 O       -10.0015108636        1.5974052545        0.9250151199
 C       -11.3987946599        0.1765263659        2.2650528075
 C       -11.3970490403        0.4075553746        3.8460331216
 O       -10.3528673015        0.3220456920        4.4947056354
 C       -12.7401269935        0.5975243439        4.5934829509
 C       -12.4857715515        1.2926926691        6.0963988746
 C       -12.4582310948        2.7548484544        5.7691040659
 O       -12.5945752646        3.1436550903        4.6260935531
 C       -12.5214059658        3.8167136922        6.9258017003
 C       -13.9591507252        3.7219291518        7.6374880460
 O       -14.0616385851        3.0985072575        8.6160115964
 C       -15.2315447624        4.2477547505        6.8854982321
 C       -11.3600523240        3.6085989287        7.9481365206
 C       -12.2648370856        5.1383814801        6.2225388213
 C       -12.6298341328        0.9128731380        1.5192634733
 C       -11.8132477020       -1.3901115193        2.0011545222
 C        -4.8278980220        0.8620248097       -0.7765806253
 C        -6.2935122643        2.7067193660        0.2813769633
 C        -4.5130656599        4.8983396890       -6.4110065882
 C        -5.5713582850        6.6006945105       -4.8520911353
 C       -13.0153599869        4.4292850372       -5.4364686958
 C       -11.5898979175        6.4691285822       -5.5335337351
 C       -10.1675313637        4.5720235917        1.7272106074
 C       -12.0524297523        6.3823058068        1.7382422458
 H        -9.4410930208        7.9468363815       -1.2267095410
 H       -10.0071383930        8.0273764300        0.5061266436
 H       -11.1310134816        7.8955684215       -0.8168812152
 H       -13.3283350688        6.1992984266       -0.5222455422
 H       -14.2165932863        4.6774719357       -0.2306305352
 H       -14.3773602324        5.2904988476       -2.6390958525
 H       -13.4416562731        3.8258480459       -2.3962795413
 H        -9.7352849036        4.5352004582       -6.5337622141
 H        -9.0711540897        3.2807329157       -5.5364727688
 H        -8.0563228163        4.9608753221       -4.0109237011
 H        -8.5936907323        6.2092669864       -5.1473361661
 H        -5.3699758018        2.2878437672       -5.3728545622
 H        -7.0393269054        2.6482858628       -4.8633007395
 H        -4.6501189825        1.7978491110       -3.0455002693
 H        -6.0221435603        0.7249953070       -3.7830216701
 H        -6.9872010848        0.4639286137        1.5946228307
 H        -6.8981170957       -1.1334597021        0.6806479779
 H        -8.9054230531       -1.0535416593        2.2956486294
 H        -9.4880766740       -1.3035013758        0.5906890225
 H       -13.1983424633       -0.3547340304        4.7715015690
 H       -13.4879302528        1.1423846524        3.9374604378
 H       -11.5520939006        0.8941097428        6.2996612468
 H       -13.1428413564        0.8974815756        6.8629308342
 H       -15.0113751547        4.5000176183        5.7387126955
 H       -15.6906582423        5.0904533781        7.4216451987
 H       -15.8848169508        3.3821306836        6.7723192596
 H       -11.5066051203        4.2040978554        8.8783477099
 H       -10.3874216245        3.9743119534        7.5704533633
 H       -11.4020449081        2.5215393664        8.0657954713
 H       -11.1379938544        5.1787965240        6.1213355148
 H       -12.5705954451        5.8312526564        6.9846452930
 H       -12.7261116554        5.2360387377        5.2875580501
 H       -12.2722488279        1.5014654201        0.7058550567
 H       -13.2229899267        1.6838568262        2.1380790744
 H       -13.3538085974        0.2691270493        1.2474579359
 H       -11.1942661336       -2.3015935350        2.3056704367
 H       -11.7791241316       -1.5368068081        0.9245955476
 H       -12.9081648383       -1.6594434292        2.2668861367
 H        -4.0036579530        1.4877061462       -0.6152888794
 H        -4.7137818980        0.5051042355       -1.8475812186
 H        -4.7952273675        0.0952912559       -0.0761503960
 H        -5.8966035446        2.5801934788        1.2324974134
 H        -7.3413725592        2.9150934910        0.6766438837
 H        -5.9424731686        3.6033966233       -0.1769661912
 H        -3.5835549373        4.9882376698       -5.8190892853
 H        -4.4338327272        5.6301970103       -7.1423906108
 H        -4.6059902583        4.0310472632       -6.9800459498
 H        -5.9470490030        6.3950618294       -3.8316810027
 H        -6.2621852926        7.3494372341       -5.3665212034
 H        -4.4636144239        6.8905500840       -4.8423358300
 H       -12.7458349106        3.7932141053       -6.3085565788
 H       -13.8555842137        5.0661354877       -5.6818749784
 H       -13.4074796063        3.7409122882       -4.6350313946
 H       -12.4560037096        6.7998937552       -6.0525499488
 H       -10.8083952366        6.3664604548       -6.3076749461
 H       -11.3889568042        7.0922748137       -4.7277051633
 H        -9.3055805938        5.1036176810        1.9596957523
 H        -9.8539328540        3.5249961839        1.4299409390
 H       -10.6229829593        4.3429944231        2.6816135974
 H       -11.4691134439        7.3051639931        1.8731580215
 H       -12.1277941424        6.0174243434        2.8407542246
 H       -13.0594501351        6.6579941368        1.3267147845
 Na       -9.6165866122        2.9584122893       -1.2256197546
