117

 C        -9.4249067575        7.6056925180       -0.5026190586
 C        -9.8861166186        6.1266354847       -0.1129513498
 O        -9.2928607572        5.2392404249       -0.6364244805
 C       -11.2337722606        5.6838193160        0.7317140432
 C       -11.9771251006        4.8870183432       -0.2825953355
 O       -11.7230860714        3.7904561212       -0.6768698939
 C       -13.1739894886        5.5792220463       -0.9760868164
 C       -13.3023900709        4.9129928419       -2.3891748021
 C       -12.2995765216        5.6830888744       -3.2735757247
 O       -11.6493518700        6.6672912733       -2.8987683776
 C       -11.9579451157        5.0494765048       -4.6812796148
 C       -10.7804534876        4.1400202734       -4.5470322071
 O       -10.6703912285        3.2542722830       -3.6967794427
 C        -9.6501107340        4.0652833597       -5.5757797327
 C        -8.4398591491        5.0042240737       -5.3137974280
 C        -7.1940009638        4.4101079474       -5.9447135956
 O        -7.2401671172        3.5139814326       -6.7885306019
 C        -5.8732421493        4.9166733673       -5.3617696969
 C        -5.2990912282        4.0170644738       -4.0969225780
 O        -4.6335389970        4.3730890740       -3.2082320940
 C        -5.5516663005        2.4519764233       -4.2276381646
 C        -5.3946337419        1.6044619150       -2.9852432710
 C        -6.4786718876        1.8801234433       -1.9498073630
 O        -7.3330438305        2.6716926444       -2.2484446092
 C        -6.6330642108        1.4550818249       -0.3858898050
 C        -8.0350270310        0.7002968509       -0.1777040930
 O        -8.8612927499        0.6523912082       -1.0976214750
 C        -8.0690829015       -0.2229326631        0.9750436211
 C        -9.4752430889       -0.6947664976        1.4078064470
 C       -10.3239234484        0.6610104518        1.5891196062
 O        -9.8696885616        1.7797107546        1.3348385820
 C       -11.6450070593        0.4022298678        2.3169145970
 C       -11.2715669850        0.2098833104        3.8962279346
 O       -10.1729445223       -0.0138438678        4.2703564937
 C       -12.5595076486        0.4575758058        4.7074202644
 C       -12.3680084044        1.5430561660        5.8703341584
 C       -12.2374998625        2.9590718759        5.5538658454
 O       -12.1297715712        3.5173441265        4.4320881075
 C       -12.3807025352        3.9695727100        6.7257987324
 C       -13.8115439554        3.9073792297        7.3807267962
 O       -14.0267139634        3.3248856751        8.4691446284
 C       -15.0984695218        4.4739760343        6.6447809605
 C       -11.2566490888        3.4678025372        7.7453609669
 C       -12.0934881702        5.4381158324        6.1808567961
 C       -12.5843448254        1.6288710298        1.9117415929
 C       -12.4540510676       -0.8712558431        1.8306737524
 C        -5.5591134252        0.3964313100       -0.0286450999
 C        -6.5680497345        2.8681345457        0.2763114396
 C        -4.7695542722        4.8005013904       -6.4573302074
 C        -5.9844983741        6.4807410694       -4.6788613671
 C       -13.0747380283        4.1309310750       -5.1534554054
 C       -11.7479800529        6.2380449070       -5.6655098198
 C       -10.6606945226        4.8579638169        1.8624494587
 C       -12.0897736236        6.8873656376        1.1701531507
 H        -9.8832491371        7.9598922308       -1.4478347606
 H        -8.2823015838        7.6295256196       -0.7234463864
 H        -9.6283544047        8.3157275387        0.2814273153
 H       -12.9794445647        6.5906373264       -1.1433349215
 H       -14.0956747051        5.4848846097       -0.3473097910
 H       -14.2267377613        4.8655416197       -2.8699571467
 H       -12.9296111180        3.8830711689       -2.2817084567
 H        -9.9112010003        4.0552146077       -6.5750970233
 H        -9.1705906548        3.1041712058       -5.3957989605
 H        -8.3156599863        5.2742072297       -4.2448033800
 H        -8.6324506852        5.9805735137       -5.7469626932
 H        -4.9318255782        2.0769035741       -5.0954934590
 H        -6.5765350417        2.2021450605       -4.5205296797
 H        -4.3848520753        1.7380002860       -2.5134057702
 H        -5.6671654631        0.5851958398       -3.3531483140
 H        -7.5167349395        0.3358589650        1.7598598286
 H        -7.2319143952       -0.9934674465        0.6224860806
 H        -9.2772788275       -1.2639957284        2.2899913927
 H        -9.9064724293       -1.3815945230        0.6555997392
 H       -12.8485760713       -0.5000936330        5.0782337964
 H       -13.3815790923        0.8643285578        4.0557992766
 H       -11.4422954663        1.2872520337        6.3832013171
 H       -13.1975135174        1.3811275561        6.5753252188
 H       -14.9376686047        5.4563346289        6.1955009944
 H       -15.9347477281        4.6527720085        7.2795450648
 H       -15.2801178971        3.7845321345        5.7907536055
 H       -10.8964805751        4.2997162406        8.4067351641
 H       -10.4423056633        3.2602617317        7.0334305272
 H       -11.6509159629        2.6165574477        8.2882564140
 H       -11.0323613285        5.3454479737        5.8993074552
 H       -12.1128430000        6.0971263789        7.0620011827
 H       -12.7481825569        5.7201416152        5.3404530849
 H       -12.6155370479        1.9190559733        0.9430182912
 H       -12.3225832406        2.5383992749        2.4177670828
 H       -13.5020425380        1.2733561637        2.2373452961
 H       -12.0087100120       -1.8369837134        2.0279072222
 H       -12.7390045628       -0.9244692826        0.8180484369
 H       -13.4785326861       -0.7433061629        2.1607783523
 H        -4.5669261868        0.7779113931       -0.0050686104
 H        -5.6493105902       -0.5097121969       -0.6172855967
 H        -5.7034431455        0.0810125754        1.0234253868
 H        -6.4909981490        2.7870681903        1.2981766647
 H        -7.4110810004        3.5694946803        0.0856148451
 H        -5.6435482042        3.4261978187        0.0226190260
 H        -3.7656014686        5.2041738815       -6.0924892000
 H        -5.0908918655        5.4569738604       -7.2954337106
 H        -4.7687328097        3.8361654089       -6.9351386004
 H        -5.0173864808        6.9537292413       -4.6933235441
 H        -6.4083006374        6.4261671803       -3.6810059008
 H        -6.6790691155        7.0554939810       -5.3060855555
 H       -12.9083464462        3.6528182912       -6.1068278634
 H       -13.9622367347        4.7059141989       -5.1816997387
 H       -13.1139813388        3.2170465207       -4.5681888246
 H       -12.5901009555        6.7491670727       -5.6101876099
 H       -11.9226276419        5.7350445941       -6.6332337414
 H       -10.7817722286        6.7405593358       -5.6239151496
 H       -11.2635013386        4.0223923115        2.1023145506
 H       -10.4745564712        5.4261128200        2.8417607419
 H        -9.6768113130        4.4912611059        1.6909023843
 H       -11.6213371050        7.5097423344        1.9567118856
 H       -12.9613336974        6.4090902006        1.6110779103
 H       -12.3453239537        7.4609019761        0.3771954105
 Na       -9.6151807198        2.8810828554       -1.2329006310
