117

 C        -9.2571473627        7.6035403522       -0.3885061545
 C        -9.8360552125        6.2051634835       -0.1956088565
 O        -9.1832999483        5.2066322515       -0.5710377192
 C       -11.0655917680        5.8876775984        0.7068573865
 C       -12.0013045260        4.9937185227       -0.3780621829
 O       -11.6348883257        3.7906128226       -0.6923703650
 C       -13.3546800560        5.5472999505       -0.9676500826
 C       -13.4358777199        5.0898272830       -2.4144888872
 C       -12.3718291880        5.7437185357       -3.3451058090
 O       -11.6494099421        6.5967498413       -2.9671522703
 C       -12.1578759964        4.9924019062       -4.7839151545
 C       -10.7502790980        4.0324251235       -4.5351750715
 O       -10.7968935888        3.3033231955       -3.5457393188
 C        -9.6870542704        4.0229244605       -5.6460098015
 C        -8.3955453844        4.8568614887       -5.3531958661
 C        -7.0990890220        4.2199709165       -5.8229685954
 O        -7.1064463549        3.3778284388       -6.7004634068
 C        -5.7071045514        4.7303852664       -5.2938598024
 C        -5.1236906101        3.8701721363       -4.0989693722
 O        -4.4575223637        4.4139232846       -3.2359334931
 C        -5.5129164450        2.3358181964       -4.1407031733
 C        -5.3058602077        1.6188001289       -2.7548621660
 C        -6.5406153750        1.9749853187       -1.9762863168
 O        -7.4190343878        2.5999807699       -2.4500179717
 C        -6.7121640374        1.4617549745       -0.3973957900
 C        -8.0448391258        0.6924364743       -0.2158229262
 O        -9.0583797479        0.6888099881       -0.9501219221
 C        -8.1655255558       -0.3052304547        1.0561346395
 C        -9.6185429513       -0.6458567477        1.2650952000
 C       -10.4217558265        0.6197783214        1.5234180709
 O        -9.9213628960        1.7338549904        1.2884801937
 C       -11.7361258604        0.5338255244        2.2800365505
 C       -11.3518041779        0.4225757007        3.8068807549
 O       -10.3283836138       -0.0941941008        4.2327804282
 C       -12.5369818477        0.6040138123        4.7777629086
 C       -12.2444642476        1.5237333302        5.9440257455
 C       -12.3032846020        3.0394996632        5.5465947679
 O       -12.1128810300        3.3716591161        4.3872437517
 C       -12.2840913293        4.0660474840        6.7389613348
 C       -13.7615990561        3.9779722436        7.3476473589
 O       -13.9737081599        3.3088026414        8.3614814081
 C       -15.0074401557        4.4913971821        6.5740217711
 C       -11.3026780306        3.5046598944        7.7583772174
 C       -11.9474375177        5.4967247995        6.1810971489
 C       -12.5003000459        1.7605596467        1.9371911482
 C       -12.3948215878       -0.7492717781        1.8711956076
 C        -5.5100197338        0.5161001625       -0.0028590018
 C        -6.6143342983        2.6898172319        0.5018121731
 C        -4.7682159359        4.9426053902       -6.4440487763
 C        -6.0295198945        6.1958668503       -4.7738794926
 C       -13.2834895844        4.0413594483       -5.3070491181
 C       -11.8079187215        6.1004918416       -5.8254328446
 C       -10.6025902363        5.0951950354        1.9559760905
 C       -11.9986361944        7.0682614115        1.1693908571
 H        -9.9132368242        8.1510993713       -0.9390250056
 H        -8.4014664231        7.6276056921       -0.9706213501
 H        -9.0965869174        8.1837151764        0.5867945115
 H       -13.4366086504        6.6135328701       -0.8172587168
 H       -14.2227095108        5.0864546821       -0.5236730102
 H       -14.3171610617        5.4824539526       -2.8622869630
 H       -13.5895518300        4.0174265574       -2.4598674163
 H       -10.1765012143        4.3877140187       -6.5053534670
 H        -9.2910513643        3.0541017956       -5.9780912175
 H        -8.2861671194        5.0414065907       -4.2850387812
 H        -8.5157742394        5.8803266693       -5.7362709401
 H        -4.9909455425        2.0557924955       -5.0625502623
 H        -6.5829294920        2.0912091010       -4.3957075024
 H        -4.5278471783        2.1026766618       -2.1919136663
 H        -5.2786542956        0.4690923551       -2.8668278868
 H        -7.6194254857        0.1115642288        1.9881690876
 H        -7.5299178830       -1.1293758138        0.7213437480
 H        -9.6689252120       -1.4740926124        2.0175710975
 H        -9.9563530961       -1.0308395090        0.3053723581
 H       -12.6297438175       -0.4489482938        5.1103935233
 H       -13.4613567627        0.9792059114        4.3708900127
 H       -11.2800720856        1.2426964604        6.3576417330
 H       -12.9552974211        1.2934316841        6.6283698604
 H       -15.0417499364        5.5166727234        6.2706361288
 H       -16.0418568276        4.3524026192        7.0655882550
 H       -14.8503461367        3.8681955257        5.6100423279
 H       -11.0997065494        4.3099349951        8.4989090536
 H       -10.4040735180        3.3765868693        7.1123514165
 H       -11.7104727239        2.5999760603        8.2437404030
 H       -11.1709482662        5.4105856858        5.4915885437
 H       -11.7514020567        6.2319795639        6.9542399336
 H       -12.9278512965        5.6586010817        5.6370144490
 H       -12.6692509635        2.1167919914        0.8901992651
 H       -11.8575800127        2.4446836978        2.3197483722
 H       -13.4974388272        1.7732876681        2.4740952537
 H       -11.6949383525       -1.5458719287        2.0883406220
 H       -12.7649472979       -0.8969263288        0.8086189382
 H       -13.3669236459       -0.9168353288        2.2714024243
 H        -4.5148708116        0.9316940868        0.0366598412
 H        -5.5457671875       -0.3956333981       -0.4466725529
 H        -5.7452665765        0.2653904999        1.0654939764
 H        -6.2753050816        2.3625994453        1.5993377612
 H        -7.3932698151        3.3602851787        0.5167735976
 H        -5.7893657612        3.3234017676        0.2132155209
 H        -3.8736600015        5.3747511775       -6.1621547740
 H        -5.2608702920        5.6308586238       -7.1814032062
 H        -4.6177147277        4.0050129960       -6.9872952101
 H        -5.1452534164        6.8607972554       -5.1035255356
 H        -6.1062047917        6.1767487354       -3.6522029145
 H        -6.9351451708        6.6425763882       -5.1876614142
 H       -12.9063023714        3.5594209042       -6.1982073505
 H       -14.0684914132        4.7168614401       -5.6401025524
 H       -13.5949335986        3.1493185725       -4.8214370055
 H       -12.7660482418        6.5650619078       -6.1591841250
 H       -11.3922021728        5.6204885495       -6.6340211473
 H       -11.0299791413        6.7207372906       -5.3422626213
 H       -11.4218469473        4.8621493917        2.6984851498
 H        -9.7827938185        5.4367959089        2.4502942538
 H       -10.2030380400        4.1167402828        1.6210134731
 H       -11.4804667814        7.7787410518        1.9009487965
 H       -12.7824734387        6.5317064638        1.7202337412
 H       -12.4587257271        7.6388467669        0.2829576334
 Na       -9.6174049620        2.7879570140       -1.1335957547
