117

 C        -9.1949179526        7.5677851565       -0.2059949406
 C        -9.7163600454        6.1324230026       -0.2135654817
 O        -9.0054661744        5.2420764531       -0.5933305510
 C       -11.1725117325        5.9497094385        0.5363356096
 C       -12.0648720319        5.0730057588       -0.3658592976
 O       -11.5663884710        3.9690558161       -0.5779135879
 C       -13.3647797625        5.4311121798       -0.9593439748
 C       -13.6641443624        5.2256156945       -2.5278936359
 C       -12.4370782087        5.5713499324       -3.4566604774
 O       -11.6938818317        6.4790125077       -3.1331227771
 C       -12.1070736939        4.9210347727       -4.8853976344
 C       -10.9069475357        3.9484428193       -4.5479763652
 O       -10.8176406284        3.4391532130       -3.4689348423
 C        -9.7737776778        3.8162632479       -5.5994383470
 C        -8.4950397761        4.6034897963       -5.2482493006
 C        -7.1017084736        4.0025385831       -5.7854671168
 O        -7.0033213155        3.1380398711       -6.6056253639
 C        -5.6766335651        4.7424738853       -5.2549886473
 C        -5.0074948449        3.7318276050       -4.2182047510
 O        -4.3461265216        4.2981221391       -3.2915460896
 C        -5.2566317682        2.2684459370       -4.0927675341
 C        -5.3069975820        1.8431955146       -2.5788567503
 C        -6.7113982008        2.0173214344       -1.8674534847
 O        -7.6882685847        2.5315670226       -2.4122297956
 C        -6.7447924474        1.3889808952       -0.3660559943
 C        -7.9714139342        0.5703621745       -0.2764695977
 O        -8.9768649317        0.7509379800       -0.8838835742
 C        -8.1747143145       -0.4910978909        0.9955677017
 C        -9.6563177608       -0.6241443212        1.1303798088
 C       -10.3030540817        0.6544092295        1.4985594264
 O        -9.9415068098        1.7781681859        1.1975836912
 C       -11.7776671867        0.6572978189        2.3268700068
 C       -11.5935503113        0.3910196496        3.7711043127
 O       -10.4510422509       -0.0528954592        4.0789534500
 C       -12.7001968078        0.6554822298        4.9340583335
 C       -12.1376683182        1.5437961382        6.0424808186
 C       -12.1919092970        3.0767037792        5.5659637385
 O       -12.1903000903        3.2762915937        4.3887123855
 C       -12.2751915663        4.1108988517        6.6761065552
 C       -13.7557504120        3.8716556456        7.2635188233
 O       -13.8660242566        3.3339557323        8.2790149527
 C       -14.8191406348        4.5216524868        6.4490020613
 C       -11.2791731948        3.7542579362        7.8897505562
 C       -11.8787045377        5.4924120615        6.2208865057
 C       -12.6290786339        1.9595750706        1.9430687818
 C       -12.5538890248       -0.7276689080        1.8896830651
 C        -5.4133344587        0.6425483160       -0.1106805115
 C        -6.7467088853        2.5300979730        0.6622926013
 C        -4.6981165397        4.9213710906       -6.4714039843
 C        -5.8965913834        6.1169834542       -4.6279109862
 C       -13.3320684701        4.1015754174       -5.3390446974
 C       -11.9102826852        6.0416031549       -5.9355112522
 C       -10.6538596367        5.2846424293        1.8372485063
 C       -11.7084968807        7.3371753646        1.1463101322
 H       -10.0629392355        8.2239355416       -0.3722226239
 H        -8.6491844743        7.7004701896       -1.0826848554
 H        -8.6793913272        7.8950845083        0.6619664692
 H       -13.5837418802        6.5005291634       -0.6155509581
 H       -14.1930314895        4.8799870671       -0.5802683051
 H       -14.6201029139        5.8460689233       -2.7620628785
 H       -14.0273364307        4.2053210140       -2.7100039805
 H       -10.1613215681        4.1486162584       -6.6578746010
 H        -9.3716112378        2.8154335256       -5.8128477320
 H        -8.3877708339        4.7603617399       -4.1868732641
 H        -8.5579962607        5.6515998471       -5.6143079055
 H        -4.3974894481        1.9315536520       -4.7013314828
 H        -6.1040621203        1.8174504206       -4.6852569530
 H        -4.6504195148        2.5574500048       -2.0444095633
 H        -5.0734929445        0.7763275778       -2.5717534360
 H        -7.9029952642        0.1229322325        1.8593840612
 H        -7.5041705338       -1.2630380951        1.0192764901
 H        -9.7880307939       -1.2833538839        2.0330080026
 H       -10.0876207291       -1.1192524328        0.2433483830
 H       -12.9363583035       -0.3948329309        5.2583977192
 H       -13.5543661635        1.1867699863        4.5909237107
 H       -11.2072309306        1.0830355343        6.3031790549
 H       -12.8138634156        1.3348796197        6.8951415721
 H       -14.7759862143        5.6681990850        6.6241247781
 H       -15.8596626938        4.3218841783        6.8174104836
 H       -14.7115911634        4.3876885853        5.3699713513
 H       -11.4311584406        4.5564395491        8.5842247904
 H       -10.2519247961        3.7012112526        7.5266808452
 H       -11.6958150528        2.8426616087        8.3802949978
 H       -11.1461044745        5.4004251333        5.4314920372
 H       -11.5177594253        6.0331855949        7.0731332893
 H       -12.7735267850        5.9189339031        5.8562074851
 H       -12.9503576637        2.0071752822        0.8231919838
 H       -11.8007842186        2.8144489152        1.9496540480
 H       -13.5375906466        2.1973016062        2.5650847854
 H       -11.8799285472       -1.5733568634        2.1638765224
 H       -12.9813456106       -0.9324625339        0.8935962725
 H       -13.5017916213       -0.8882229643        2.4227428718
 H        -4.5059462330        1.2350352648       -0.2657367356
 H        -5.3641988257       -0.3780046216       -0.6587215347
 H        -5.3986559538        0.3493037473        0.8958628665
 H        -6.7002767251        2.0741586446        1.7243007444
 H        -7.6213090398        3.2447031692        0.4709383922
 H        -5.9392072598        3.2466845802        0.6867893428
 H        -3.7191646273        5.2064382096       -6.1803787963
 H        -4.9734941010        5.6064404589       -7.2543533439
 H        -4.6146169933        3.8767666485       -6.8139918686
 H        -4.8814590954        6.6166969111       -4.7074540233
 H        -6.1399295739        5.9669358609       -3.5298104699
 H        -6.6492648550        6.7742480784       -5.1446209457
 H       -13.0312708927        3.4591903487       -6.1674488839
 H       -14.0841248844        4.8074789455       -5.7240540945
 H       -13.7261350455        3.3106136021       -4.7207898515
 H       -13.0083725047        6.3503504145       -6.1840621737
 H       -11.2848190274        5.7316337345       -6.7871142456
 H       -11.3798477106        6.7532693875       -5.3503042144
 H       -11.0042342271        5.7523675195        2.7525265761
 H        -9.5895134820        5.2654119923        1.8787660956
 H       -10.7861076781        4.1978768195        1.9820581660
 H       -10.8544738039        7.5626014855        1.7817071641
 H       -12.6330479987        7.2145886374        1.8032782714
 H       -11.7875898389        8.2388603293        0.4026999116
 Na       -9.6124185084        2.8639696750       -1.1219389261
