117

 C        -8.9894727803        7.6449688420       -0.2197056172
 C        -9.6438099686        6.2812981720       -0.2402144954
 O        -9.0755065910        5.2740227009       -0.5927316246
 C       -10.9151003234        6.1014262612        0.5438114440
 C       -11.9302268993        5.1197676837       -0.3828793242
 O       -11.6525268349        4.0325980624       -0.5326242728
 C       -13.4050834585        5.5182885466       -0.9855387545
 C       -13.6969206351        5.2768690737       -2.5870644702
 C       -12.4916184071        5.5304388084       -3.4638453068
 O       -11.6790846647        6.4562200083       -3.1812365525
 C       -12.2343111590        4.9073801049       -4.8809302724
 C       -10.9543591843        4.0303069286       -4.5473980610
 O       -10.8169223066        3.5730548165       -3.4127936681
 C        -9.6968138726        3.5063019207       -5.5902698280
 C        -8.4225491252        4.2748516586       -5.1503545273
 C        -7.0796137548        3.9735034853       -5.7824674194
 O        -7.0060489353        2.9350874766       -6.3973007727
 C        -5.7446862714        4.6738728667       -5.1966208494
 C        -4.9875189336        3.7215570890       -4.1579007689
 O        -4.1967843158        4.2656606736       -3.4266563597
 C        -5.1085003975        2.2420936225       -4.0447125384
 C        -5.3846105236        2.0346193430       -2.5927887688
 C        -6.7050722291        2.0003082168       -1.7845741328
 O        -7.7504063482        2.4579232876       -2.2885480122
 C        -6.6450871978        1.3519490925       -0.3981742735
 C        -7.9821000799        0.5125990308       -0.2268717013
 O        -8.8535648581        0.5917533663       -1.0482339193
 C        -8.1872086752       -0.5193733750        0.9028325175
 C        -9.7258646300       -0.5970037707        1.3084215069
 C       -10.5456329611        0.7794726827        1.5110562306
 O        -9.9860024173        1.7730522347        1.2168527822
 C       -11.8763138959        0.6949827444        2.2084526507
 C       -11.6192745777        0.4753316653        3.8237817218
 O       -10.6122235633       -0.0189173523        4.1581615907
 C       -12.6766380428        0.6108040286        4.9261377492
 C       -12.0873395825        1.5360079580        6.0059140778
 C       -11.9711414449        2.9479388181        5.6227511460
 O       -12.2445978750        3.3303034421        4.4921885196
 C       -12.1465505229        4.0890504359        6.7185780934
 C       -13.6206720389        4.0048379779        7.2336415847
 O       -13.9164970535        3.2895188212        8.2033941674
 C       -14.7111616520        4.6412334958        6.3277176504
 C       -11.1486320259        3.9418521599        8.0642723747
 C       -11.8851965114        5.5531126823        6.1245738636
 C       -12.7754775597        1.8731419334        1.8646366983
 C       -12.8277399354       -0.5625469301        1.8163346578
 C        -5.3089584640        0.6015969663       -0.1316620320
 C        -6.9526390380        2.5031315252        0.7535477064
 C        -4.7492567835        4.6992336369       -6.5083322006
 C        -5.8282637945        6.0538152171       -4.4686013914
 C       -13.4611944343        3.9526403150       -5.4075787075
 C       -11.9342908610        5.9838621897       -5.9166955849
 C       -10.7378186575        5.2340345095        1.8109184736
 C       -11.5588343330        7.5243518328        0.8360406019
 H        -9.5998670810        8.5694077494       -0.0256920697
 H        -8.2640086861        7.8719322624       -1.1308173268
 H        -8.4044516797        7.5164728188        0.6272916442
 H       -13.6691108435        6.5783056387       -0.7996274958
 H       -14.2878852211        4.9928539872       -0.5096961722
 H       -14.6559731050        5.8785688420       -2.8341344561
 H       -14.0422556716        4.2219251134       -2.8636551340
 H        -9.7560757058        3.4340082102       -6.7246065641
 H        -9.4691255362        2.4243704012       -5.3161024220
 H        -8.2504942696        4.1529178169       -4.0602782428
 H        -8.6153723303        5.3436037369       -5.2268489516
 H        -4.1439907098        1.7540838232       -4.3726379099
 H        -5.7962586893        1.7933967746       -4.7305270655
 H        -4.7871433352        2.8880929835       -2.1171392222
 H        -5.0409681659        1.0570727952       -2.3956971297
 H        -7.4731767136       -0.3936053381        1.6028779092
 H        -7.7566862485       -1.3698503268        0.3563400945
 H        -9.8214193792       -1.3816338509        2.0354354285
 H       -10.0737755133       -1.0290623464        0.3302638315
 H       -12.8471608749       -0.4195795263        5.1795951867
 H       -13.5686717659        1.1187465227        4.4964868180
 H       -11.1216095084        1.0252496101        6.1418848617
 H       -12.6340231318        1.4369377481        7.0523413939
 H       -15.1382591174        5.6035406530        6.7370481846
 H       -15.5499453999        4.0421047820        6.5429299288
 H       -14.5878978992        4.7882615726        5.2755627207
 H       -11.6250685795        4.5831362062        8.7638107863
 H       -10.1174656139        4.1322851581        7.9050413770
 H       -11.4151837875        2.9952205250        8.4463224354
 H       -11.0548153974        5.4884937457        5.3895801997
 H       -11.5733875060        6.0620074968        7.0119174970
 H       -12.7362585564        5.9855133323        5.7287946444
 H       -13.3028203404        1.7169779685        0.8897137032
 H       -12.0995491697        2.7580829167        1.5877090469
 H       -13.5881360182        2.1218534027        2.6040247487
 H       -12.3945636537       -1.5499672286        2.1242795898
 H       -13.1311421427       -0.6655208876        0.8243900135
 H       -13.8634599403       -0.4944002245        2.3108489657
 H        -4.4272660942        1.2791720353       -0.1859883946
 H        -5.2195979611       -0.2333204843       -0.9292969993
 H        -5.2686315732        0.0549099224        0.8028514487
 H        -7.2740593498        1.9914506712        1.6263412557
 H        -7.8079053682        3.1578349403        0.2819128871
 H        -6.3336149246        3.3577618198        1.1552583188
 H        -3.7114896681        4.9556114386       -6.0580420984
 H        -4.9253591136        5.5296863468       -7.1578248228
 H        -4.6080417111        3.7079356104       -6.9253438293
 H        -4.8711636088        6.1596636809       -4.0224378372
 H        -6.5674680067        5.8963650856       -3.6644433829
 H        -6.0642139480        6.9556246434       -5.1099694660
 H       -13.2617989472        3.3514697207       -6.3198770297
 H       -14.4037789819        4.4801407514       -5.5483093150
 H       -13.5608667215        3.0790840878       -4.7322584431
 H       -12.8831091066        6.3669959647       -6.1136682250
 H       -11.3600713759        5.4802900268       -6.8021044710
 H       -11.2554625289        6.6947725428       -5.4147606236
 H       -10.9433753412        5.7096958000        2.7193470158
 H        -9.6429033414        4.8013745172        1.8879468843
 H       -11.2190364021        4.2919651471        1.8288006366
 H       -10.7972024625        8.0655778138        1.3785697031
 H       -12.5071549565        7.4845920310        1.4304058053
 H       -11.6558811316        8.0083942388       -0.0567340221
 Na       -9.6544337650        3.0847575689       -1.1749142832
