117

 C        -8.4894957661        7.5583843363       -0.2765176185
 C        -9.4064126257        6.3687974454       -0.5296967711
 O        -8.9328726341        5.3284431121       -0.8673926385
 C       -10.9316510025        6.3358314685        0.2593474812
 C       -11.9947473290        5.3944667458       -0.4682877115
 O       -11.8271043847        4.1352390375       -0.6240248944
 C       -13.1457437386        6.0361257144       -1.2563374781
 C       -13.4772958593        5.0635352295       -2.4317462964
 C       -12.3650945912        5.5310611718       -3.4814093120
 O       -11.6514384408        6.4774912191       -3.2842964723
 C       -12.1593803791        4.7130123492       -4.7241568928
 C       -10.7720134904        3.9549573454       -4.2940973562
 O       -10.8080549311        3.6586104957       -3.1275929556
 C        -9.7643450704        3.5052168777       -5.2677213545
 C        -8.4002605560        3.9974661070       -4.7684830625
 C        -7.1010095475        3.6127513096       -5.4048136992
 O        -7.1033515819        2.6408939434       -6.1311083726
 C        -5.8516287839        4.5511775188       -5.1723969204
 C        -4.8875558519        3.7477033211       -4.0695485136
 O        -3.7987380451        4.1885219381       -3.6787090113
 C        -5.2620991119        2.2597375512       -3.7388320981
 C        -5.1597606793        1.6795062488       -2.2525103600
 C        -6.5218099789        1.9343994598       -1.6509655936
 O        -7.3046851517        2.6207747758       -2.2412334315
 C        -6.8639578345        1.2925695207       -0.2862662786
 C        -8.2174378314        0.3307752989       -0.4592216779
 O        -8.8337507026        0.1771255550       -1.4828508296
 C        -8.4791463805       -0.4955467973        0.9071244181
 C        -9.9247575106       -0.5508702146        1.3522191649
 C       -10.7076291533        0.6599227175        1.5206103958
 O       -10.2974549562        1.8266602002        1.1236024547
 C       -12.1167940524        0.5773251807        2.1770552171
 C       -11.7502254499        0.4800629563        3.7500618648
 O       -10.5801912637        0.1002606211        3.9759340446
 C       -12.8239729639        0.9371250692        4.9452130311
 C       -12.0197231327        1.6030720476        6.1251124761
 C       -11.9874045010        3.1306234942        5.7367481819
 O       -12.0713967809        3.4386492970        4.5705896481
 C       -11.9848993370        4.2263891369        6.8085951063
 C       -13.6614624965        4.1086972344        7.2038921053
 O       -13.8588268373        3.3149273978        8.0297042751
 C       -14.6430853934        4.7648974014        6.2825091183
 C       -11.1172444866        4.0219249064        7.9858983290
 C       -11.5382125939        5.5512667587        6.1326106026
 C       -12.8856750004        2.0255110822        1.9700107985
 C       -12.8996193028       -0.6536270983        1.7194276722
 C        -5.6390851943        0.4421557359        0.4045391129
 C        -7.1231718205        2.4182171793        0.7066097050
 C        -5.0284467428        4.5247424907       -6.5020526368
 C        -6.2038437112        5.9879385693       -4.7981801340
 C       -13.2559250599        3.8028431863       -5.1659633804
 C       -11.8622602128        5.6844287314       -6.0642639586
 C       -10.8846623158        5.6667217199        1.6646401119
 C       -11.6921322319        7.6353299652        0.5240304573
 H        -8.8248744776        8.4865714641       -0.7385536818
 H        -7.5298911497        7.3597923390       -0.6239550903
 H        -8.3677186772        7.7804471578        0.8159543493
 H       -12.9643473586        7.0330103692       -1.6907766303
 H       -13.8957147882        6.2702172331       -0.5417200614
 H       -14.4423508107        5.1497836188       -2.8549509434
 H       -13.4565477704        4.0368301100       -2.2567922781
 H        -9.9823028212        3.6557225985       -6.2984503033
 H        -9.8718092188        2.4675199643       -5.2488812754
 H        -8.3647005764        3.6443042707       -3.7420693892
 H        -8.5470541150        5.1002070986       -4.6957434677
 H        -4.7541731369        1.5254961420       -4.3313954736
 H        -6.2528725067        2.0153103560       -4.1665055258
 H        -4.3504141219        2.1994832864       -1.7522503004
 H        -4.9383493783        0.5558963471       -2.4276730352
 H        -7.6966210724       -0.0527739741        1.6574267182
 H        -8.0015256637       -1.4510462068        0.6601462540
 H        -9.7477799681       -0.9856629781        2.3771775215
 H       -10.4248887589       -1.3463575014        0.8451527687
 H       -13.2349271054       -0.0380306181        5.3195774900
 H       -13.5507469515        1.6080397184        4.5386715504
 H       -11.0677316455        1.0657684858        6.3129819209
 H       -12.5932859498        1.3884364261        6.9586244995
 H       -15.1718836827        5.6735926661        6.6146165608
 H       -15.4508277233        4.1192790870        5.8193864374
 H       -14.0312861331        5.1014211717        5.4712499696
 H       -11.5575849159        4.4996754470        8.8443583325
 H       -10.1978176549        4.4661297586        7.6413873800
 H       -11.0101866267        2.9463010879        8.1777808872
 H       -10.4673177134        5.5205609724        5.9973898980
 H       -11.8895668968        6.4789953173        6.6452886772
 H       -11.9746859450        5.4433663261        5.0973745902
 H       -13.3700265160        1.9807104440        1.0548247220
 H       -12.1781603401        2.8855986286        2.0713890539
 H       -13.6036665142        2.1248615583        2.6689841740
 H       -12.5502546521       -1.6359667276        1.9695575182
 H       -12.8171086448       -0.6120059506        0.5722273610
 H       -13.9112270432       -0.7983505501        1.9653869774
 H        -4.7647410463        1.0845541613        0.3844150426
 H        -5.3577884275       -0.4317680728       -0.1954872749
 H        -5.7857719122        0.0717844888        1.4006032810
 H        -7.3692621114        2.2895537742        1.8317208223
 H        -7.5909925197        3.2349936767        0.1993531877
 H        -6.2206923528        2.9588814408        0.7208381469
 H        -4.0409533573        4.8938420329       -6.3864572159
 H        -5.5214734660        5.3015919925       -7.1230076056
 H        -4.8856446221        3.4577928292       -6.8433724299
 H        -5.6351335650        6.3260504569       -3.9188808071
 H        -7.2311647824        6.2496135486       -4.6504808373
 H        -5.8558141637        6.6450959811       -5.5600763055
 H       -13.2457113344        3.6154412825       -6.2350980377
 H       -14.2214784693        4.3260118230       -4.9857872197
 H       -13.3848983084        2.8248167416       -4.6878619561
 H       -12.6861045940        6.4688028165       -6.0870110808
 H       -11.7379425602        5.0384890039       -6.8405861371
 H       -10.9615147187        6.1703313678       -5.8994775681
 H       -10.4128632512        6.2279891806        2.5192915725
 H       -10.5580699393        4.6860498070        1.7309125325
 H       -11.9784149479        5.5688383875        1.9415262302
 H       -11.3395193941        8.2362359832        1.2833192034
 H       -12.6737951073        7.2751170660        0.7202203493
 H       -11.7439508806        8.2190630470       -0.4319203149
 Na       -9.7569522589        3.2493714115       -1.2769327279
