117

 C        -8.6996610426        7.5318492309       -0.1492196526
 C        -9.4698126948        6.2651445113       -0.3999960438
 O        -8.9967634995        5.3686048158       -0.9900367204
 C       -11.0226766003        6.4156818299        0.1379808557
 C       -11.8698657231        5.5103246563       -0.6317014244
 O       -11.7596094820        4.3110088769       -0.5227395555
 C       -13.1576072169        6.0795673811       -1.3460976020
 C       -13.3881733004        5.2031483303       -2.6371119742
 C       -12.3682462379        5.5805978977       -3.6460839341
 O       -11.6309662690        6.5892917955       -3.3854984393
 C       -12.1005404812        4.6078459259       -4.7643604185
 C       -10.9095320871        3.7864136653       -4.2571496402
 O       -10.8066055477        3.5592109644       -3.0607551740
 C        -9.7188692854        3.4746174336       -5.1716944817
 C        -8.4397222433        3.9955964994       -4.5670546993
 C        -7.2691338194        3.6106259308       -5.4422126926
 O        -7.2062466280        2.5622017032       -6.0522933275
 C        -5.9144353757        4.4354404293       -5.2118062144
 C        -4.9277949570        3.6029076119       -3.9745443512
 O        -3.8111424863        4.1602489334       -3.7906152683
 C        -5.1554189095        2.1797953184       -3.7328010177
 C        -5.1019531147        1.6371101104       -2.1904779200
 C        -6.4500986652        1.8218714349       -1.5433026546
 O        -7.2361171465        2.7042425816       -1.9676846944
 C        -6.8733058636        1.2690091884       -0.2269538898
 C        -8.2197403004        0.3829501300       -0.4291569748
 O        -8.7424515562        0.1145951858       -1.4469213656
 C        -8.5895804544       -0.4046390536        0.9140706027
 C       -10.1182394079       -0.6161444533        1.2080114267
 C       -10.8541266140        0.7463534806        1.4119097434
 O       -10.3781182553        1.7490498289        0.8989287674
 C       -12.1394968045        0.6974340003        2.2278931985
 C       -11.7752922390        0.6350759800        3.7708164421
 O       -10.7278728855        0.1800943402        4.1337142943
 C       -12.7663891318        0.8718865121        4.8773159368
 C       -12.0236126424        1.7224158031        5.9968844098
 C       -11.9204354163        3.1827952201        5.6014538665
 O       -11.9290147345        3.4578112421        4.4219514028
 C       -11.9252862699        4.2369599384        6.7644091125
 C       -13.4307491548        4.1046503969        7.1328635612
 O       -13.8873480225        3.4425072085        7.9896840661
 C       -14.5714250093        4.8455887614        6.3255527836
 C       -11.1589329650        3.8907282213        8.1168360167
 C       -11.5568873291        5.6888228835        6.1625760056
 C       -12.9186179228        1.9746181591        2.0105636853
 C       -12.8277563847       -0.6078295287        1.7794980292
 C        -5.9275491280        0.3258212605        0.4429025924
 C        -7.2837697538        2.4350821993        0.7580810572
 C        -5.0865883660        4.3991087815       -6.5346012581
 C        -6.1666278329        5.9539593038       -4.8407403112
 C       -13.2050678120        3.6394656163       -4.9966818418
 C       -11.7272102383        5.5624104171       -6.0351688281
 C       -10.7456352729        5.8402753654        1.5809220814
 C       -11.3882681088        7.9182906463        0.3522231063
 H        -9.0704893059        8.2079664466       -0.9242218028
 H        -7.6390492272        7.3572783578       -0.3647153098
 H        -8.7595690061        7.9858842406        0.7020646811
 H       -13.2845132420        7.1683339961       -1.5447540541
 H       -13.8014537581        5.9484099760       -0.5150061409
 H       -14.3521342489        5.0201204948       -3.1306525052
 H       -13.1460352371        4.2128251464       -2.4148237924
 H        -9.7697340374        3.8584897872       -6.2233484275
 H        -9.6950980689        2.4503739844       -5.4588459484
 H        -8.2778557415        3.5214560164       -3.6111507902
 H        -8.5968609808        5.0670785371       -4.3783518601
 H        -4.4209313693        1.5107647541       -4.2261803020
 H        -5.9781425312        1.8032260614       -4.3075294015
 H        -4.2505115881        2.1186608656       -1.6623226982
 H        -4.9416071927        0.6135829433       -2.4036662668
 H        -8.0608585033        0.0808343752        1.6851596156
 H        -8.0388544002       -1.3157326798        0.7616791034
 H       -10.0788306512       -1.4401038290        1.9674675087
 H       -10.5294158235       -1.1808706934        0.3249970998
 H       -12.9010800623       -0.1223192657        5.3645689942
 H       -13.6568557809        1.3450359819        4.5507256955
 H       -11.1598325503        1.3081498150        6.3804783250
 H       -12.7924375777        1.5212411995        6.7748169827
 H       -15.0608882465        5.7499291285        6.9155439972
 H       -15.4106392635        4.1858407861        6.0617912866
 H       -14.3448926753        5.3268345617        5.3628718143
 H       -11.5403612002        4.5097446004        8.9388322420
 H       -10.1127888062        4.0717512504        7.8167245526
 H       -11.3446931028        2.8008594293        8.3165995743
 H       -10.4573450353        5.7188110026        6.4277288329
 H       -12.0437987217        6.4445357511        6.7974654849
 H       -11.6546004377        5.8318829605        5.1246788279
 H       -12.9955841198        2.0101562822        0.9038581003
 H       -12.3906586399        2.8564409574        2.5209376469
 H       -13.9502704633        1.8992791316        2.4420710690
 H       -12.4171339056       -1.5785125688        2.1171412015
 H       -12.9592918517       -0.7229134678        0.7104270485
 H       -13.7804499011       -0.7619846595        2.3004941441
 H        -4.9684857149        0.7688440150        0.3127368079
 H        -5.8099206024       -0.7751281778        0.1248751641
 H        -6.0601948708        0.3094609675        1.4574832374
 H        -7.5949701865        2.1509638839        1.6977525024
 H        -8.0049192518        3.1100530280        0.1201955982
 H        -6.5388626283        3.2529299871        0.8818386833
 H        -4.1758204090        4.9954335147       -6.6432422443
 H        -5.7947008976        4.8141092045       -7.1746091637
 H        -4.8164714390        3.3910655566       -6.7044273777
 H        -5.6014849264        6.3508987536       -3.9780233362
 H        -7.2141677802        6.3832914440       -4.7834428115
 H        -5.6829434113        6.5604348258       -5.6819086068
 H       -13.1501297556        3.0678465946       -5.9255367951
 H       -14.2043030765        4.1046749103       -4.9978415937
 H       -13.3289424330        2.9703100408       -4.1149726057
 H       -12.5577652805        6.2238526839       -5.9799926869
 H       -11.6183608976        4.8859824748       -6.9491161440
 H       -10.8683543489        6.1516185328       -5.8551351411
 H        -9.7786989540        6.1278722862        1.9281598342
 H       -10.8738532133        4.7228862305        1.8457149760
 H       -11.4396689339        6.3227485908        2.2555307655
 H       -10.7764020164        8.3446402803        1.1940893372
 H       -12.5236267654        7.8700472012        0.6666084655
 H       -11.2773066347        8.5449721913       -0.5442595943
 Na       -9.6373532512        3.0538384864       -1.1841426854
