117

 C        -8.5851442986        7.6173005687       -0.2070751383
 C        -9.5211854193        6.4393682902       -0.4457613891
 O        -9.2001436071        5.3496027306       -0.9929355644
 C       -10.9034519815        6.5992991140        0.2407439418
 C       -11.9555612357        5.5617746993       -0.4957058922
 O       -11.6565798078        4.4202298846       -0.5619852230
 C       -13.2666928254        5.9968104261       -1.2716917667
 C       -13.3875930417        5.3851760120       -2.6151499093
 C       -12.3042220062        5.6970510681       -3.6835936242
 O       -11.5992292808        6.6987161989       -3.6298099823
 C       -12.0844230696        4.5663206610       -4.8189349360
 C       -10.8889091295        3.7599758620       -4.2353218060
 O       -10.9239860628        3.3433088841       -3.0740450506
 C        -9.6456715145        3.3346555805       -5.1650150357
 C        -8.4413965448        3.9778889100       -4.4458769005
 C        -7.2192075885        3.5154570382       -5.1656487282
 O        -7.3029473899        2.6442599689       -6.0204815059
 C        -5.8224326660        4.2559858102       -5.2440878419
 C        -4.8772255965        3.6171265621       -4.2556231987
 O        -4.0238645518        4.2219487656       -3.7987264780
 C        -5.1102899580        1.9796800009       -3.8314125612
 C        -5.1514488243        1.6689861557       -2.1964011693
 C        -6.4938203078        1.9765085060       -1.4651795402
 O        -7.2826928653        2.8624442503       -1.8933388162
 C        -6.9603680878        1.2131983841       -0.0172821418
 C        -8.2125570383        0.2659136173       -0.2608660739
 O        -8.6777727313        0.2335399427       -1.4030390661
 C        -8.7328911298       -0.4549037132        0.9782586043
 C       -10.2271562655       -0.6143733972        0.9388039724
 C       -10.8165729939        0.7876850045        1.2259862393
 O       -10.5050830762        1.7543069023        0.6625577555
 C       -12.1419025975        0.7886151745        2.2669404424
 C       -11.6904449410        0.5556046598        3.8719168982
 O       -10.5973653696        0.1935929861        4.1506506784
 C       -12.8548524109        0.8470953102        4.9107342476
 C       -12.1632421594        1.7714785614        5.9699548106
 C       -11.8184742580        3.2080098334        5.5359682380
 O       -11.7255558582        3.6352801335        4.3474252259
 C       -11.9353066039        4.2406712557        6.7059645169
 C       -13.4449171350        4.2217131241        7.0914560857
 O       -13.7763445033        3.4718603136        8.0603808553
 C       -14.4925804354        5.0652828569        6.2726020398
 C       -11.2240274815        3.7720628956        7.9911040828
 C       -11.6125064681        5.6704868963        6.3075379244
 C       -13.0533231109        1.9618155581        1.9003408264
 C       -12.9859194530       -0.4884700976        1.9676802691
 C        -5.9142806755        0.1919437645        0.5370316321
 C        -7.3511013129        2.3954075192        0.8773041273
 C        -5.1254146210        4.1625369936       -6.5420378161
 C        -5.9717438991        5.7900769926       -4.7913280306
 C       -13.2215503250        3.5009940083       -4.9913086759
 C       -11.6642712553        5.3312436629       -6.0910607458
 C       -10.6397426005        5.9172968204        1.6671763130
 C       -11.2080843255        8.0916879789        0.0750186658
 H        -8.6975848556        8.4800538359       -0.7934829907
 H        -7.5320203293        7.3224921197       -0.1550246134
 H        -8.7974374908        7.8714531031        0.9275578629
 H       -13.1349284987        7.0393641156       -1.4863253257
 H       -14.1816360093        6.0286573086       -0.5961116617
 H       -14.3107909798        5.7147838105       -3.1710478479
 H       -13.6751802025        4.2744344523       -2.5846056241
 H        -9.6484542618        3.6490745773       -6.2218155713
 H        -9.5472345726        2.2159953771       -5.4311701906
 H        -8.5030814743        3.5216559927       -3.4373070947
 H        -8.6080754747        5.0182294404       -4.3481278058
 H        -4.2712061151        1.3423991070       -4.1720269278
 H        -5.8365947851        1.4309023427       -4.4107560989
 H        -4.3938309425        2.3680929996       -1.8005693555
 H        -4.8903938828        0.6599797130       -2.1262761949
 H        -8.4357958851        0.2130672833        1.7020419414
 H        -8.2182321844       -1.3758756189        1.1161039644
 H       -10.4378494836       -1.5215202840        1.4881744613
 H       -10.4929212342       -0.9695344524       -0.1032383860
 H       -13.2283468079       -0.0322227132        5.3823660897
 H       -13.5858077510        1.3925773219        4.2843325426
 H       -11.1520863970        1.3533860101        6.1541223632
 H       -12.6613881030        1.5516015684        6.9652238058
 H       -14.8181879966        5.9626923902        6.7852409259
 H       -15.4163936815        4.5889960339        5.9359509111
 H       -14.1183792697        5.5064681785        5.2803283797
 H       -11.3524713763        4.5753025065        8.7642452607
 H       -10.1639520299        3.5951149352        7.7124078453
 H       -11.7295436460        2.8599436572        8.3119571033
 H       -10.5617545996        5.7841529114        6.6174245269
 H       -12.1254463376        6.2829451450        7.0147703124
 H       -11.7320924885        5.9700792943        5.2941562639
 H       -12.8268972340        2.1656871544        0.7540406943
 H       -12.9258877335        2.7892891077        2.5959234501
 H       -14.2203389156        1.6686513476        1.9828225573
 H       -12.6574750925       -1.4535280091        2.3244304029
 H       -13.3009135037       -0.6893914048        0.9819185995
 H       -13.8099883096       -0.4404753497        2.7246744650
 H        -4.8996413248        0.5479384220        0.3018387899
 H        -5.9666270396       -0.8069355800        0.2158089438
 H        -5.9369396908        0.1331379871        1.6876548871
 H        -7.6986466340        1.9799894718        1.8061025731
 H        -8.0016838650        3.1279864374        0.4737752268
 H        -6.4841711242        3.1321390894        1.1400856554
 H        -4.2430004920        4.8150214925       -6.5587563075
 H        -5.7889889530        4.4340658986       -7.3157747322
 H        -4.7502618877        3.2017473953       -6.5795830818
 H        -5.4896615021        6.1098975865       -3.8355377481
 H        -7.0446922017        6.1581619826       -4.7804910014
 H        -5.4728203592        6.4787891052       -5.5601880254
 H       -12.9821828627        2.6405455367       -5.6460058165
 H       -14.1914814612        3.8160838347       -5.3453791915
 H       -13.4899117534        3.2222086256       -3.9484708272
 H       -12.5094741770        5.9167817111       -6.2453092471
 H       -11.4442316718        4.5500497424       -6.8642283924
 H       -10.8184133890        6.0932865175       -5.8901535372
 H        -9.5938533420        5.7000421226        1.8550152782
 H       -11.1294434023        4.9017531865        1.7426225466
 H       -11.0659487918        6.4332047419        2.5107910646
 H       -10.5925780325        8.7722287143        0.8157524411
 H       -12.2902011157        8.1561054017        0.3260578875
 H       -11.0840438611        8.4197344266       -0.9761223713
 Na       -9.5202519355        2.8277654579       -1.0652942165
