117

 C        -8.2939171203        7.4545201939       -0.3468412951
 C        -9.4769304214        6.4697003459       -0.4394979803
 O        -9.1852095416        5.4090937263       -1.0276552130
 C       -10.9382561565        6.6428588896        0.2270628290
 C       -11.8579510720        5.6704602479       -0.5332019560
 O       -11.5988699627        4.4522733744       -0.5611656311
 C       -13.1542619050        6.1745745901       -1.1739956124
 C       -13.4215954832        5.6416954793       -2.5348118392
 C       -12.2914471408        5.6800772602       -3.7160941748
 O       -11.6895343179        6.6558583248       -3.8469307266
 C       -12.0036460598        4.5128323321       -4.7521265246
 C       -10.9099971163        3.6182089995       -4.1756701863
 O       -11.0253805685        3.1021097555       -3.0902629214
 C        -9.6650658471        3.2675012875       -4.9198193496
 C        -8.3520920545        3.9955164309       -4.4319115056
 C        -7.2543024383        3.5323851864       -5.3410528536
 O        -7.3784875247        2.5173310940       -6.0269064996
 C        -5.8317624799        4.1123627315       -5.2440585307
 C        -4.9091373367        3.4732199621       -4.0336760857
 O        -3.9846021283        4.0935310636       -3.5766188335
 C        -5.0729630427        2.0368082459       -3.6848348007
 C        -5.2609963115        1.7638520116       -2.2455205414
 C        -6.5305079245        2.0339537555       -1.4378843922
 O        -7.2825813758        2.8864567931       -1.7407438450
 C        -6.8405285772        1.2555224916       -0.0038459230
 C        -8.1658866237        0.3858014560       -0.2190619856
 O        -8.7526829290        0.2923395838       -1.2910866954
 C        -8.7763320528       -0.5181961467        0.9300191833
 C       -10.3506401387       -0.5447224448        0.7157489792
 C       -11.0671259632        0.6157980800        1.0848720101
 O       -10.7627074917        1.7640756037        0.6522456052
 C       -12.2186739891        0.7445843167        2.2283236493
 C       -11.6660709126        0.6823585322        3.6343858581
 O       -10.5828140371        0.2101886252        4.0673243331
 C       -12.6584505580        0.9904551206        4.7537722242
 C       -12.1980644677        1.8431222554        5.9133127866
 C       -11.8889588287        3.2585159238        5.5026620008
 O       -11.5174097868        3.6467989726        4.4028788502
 C       -12.0068832726        4.3145816876        6.7642161857
 C       -13.5591739380        4.3084250756        7.1309789629
 O       -13.9411050669        3.5752385490        8.0464103661
 C       -14.3842823284        5.1835779278        6.3088105847
 C       -11.0995743303        3.6670627774        7.8265600135
 C       -11.5024263078        5.7226607015        6.4009787725
 C       -13.0436521664        2.0358696358        1.9088987542
 C       -13.1471186512       -0.4935725065        2.1496646018
 C        -5.7307661353        0.3175583587        0.5528010542
 C        -7.1773528459        2.2905460417        1.0802667603
 C        -5.1943607818        3.9119225406       -6.6610751680
 C        -5.8089142413        5.6468324347       -4.7540799170
 C       -13.1607979908        3.5635549593       -5.0327821104
 C       -11.7098199357        5.0798302275       -6.2042922948
 C       -10.6911720442        6.2066573829        1.6810203716
 C       -11.4202884426        8.1132230960        0.0275917979
 H        -8.4415883549        8.4019771364       -0.9598411734
 H        -7.3570476322        6.9608805325       -0.6403827277
 H        -8.0674903685        7.7767460427        0.7453103285
 H       -13.2616186537        7.2536145935       -1.0328256586
 H       -14.0450311695        5.7818097679       -0.5779291540
 H       -14.3902465968        5.9211407724       -2.9921449996
 H       -13.7096380890        4.5448684677       -2.2729125152
 H        -9.7875322206        3.4189641207       -5.9822785159
 H        -9.5456152190        2.1572792290       -5.0064373303
 H        -8.2247483472        3.6130788913       -3.4125143158
 H        -8.5389100517        5.0691292556       -4.3842771993
 H        -4.3290632767        1.3811583893       -4.1032268313
 H        -5.8994067388        1.6386727838       -4.3027383470
 H        -4.6287444970        2.4962137300       -1.7885293796
 H        -4.8731674890        0.7211737297       -2.1145334884
 H        -8.4226853143       -0.2249200975        1.9741125902
 H        -8.4643188262       -1.5218016718        0.6362141330
 H       -10.5872967698       -1.4493558768        1.2759650976
 H       -10.5663943530       -0.9226566883       -0.2552676307
 H       -12.8442293075        0.0098875535        5.1577420112
 H       -13.5833116985        1.4192759442        4.3087978688
 H       -11.1989241568        1.4417190189        6.4241157947
 H       -12.9382566616        1.6620648986        6.6959413923
 H       -14.5025819732        6.0993467222        6.7870191765
 H       -15.3818001993        4.8267900777        6.0542341348
 H       -14.0238941799        5.4689100086        5.3482155073
 H       -10.9268078563        4.5352672359        8.4650888968
 H       -10.1651159508        3.3546315422        7.3719729679
 H       -11.6168530415        2.8956726848        8.3689292549
 H       -10.4750450232        5.8376036373        6.4734171804
 H       -11.9213746713        6.4497213243        7.0705922984
 H       -11.8781120696        5.8865937500        5.3630197625
 H       -12.7815317081        2.4860340777        0.9314877011
 H       -12.8998263524        2.6572832478        2.8153845534
 H       -14.0877013939        1.8279012356        1.9230954482
 H       -12.7859894119       -1.4595142316        2.4109077411
 H       -13.5611664014       -0.6872373576        1.1387982225
 H       -13.8711247096       -0.4067506002        2.9071191612
 H        -4.6504185973        0.6243067879        0.6003041353
 H        -5.7134571977       -0.6489009782        0.1055430885
 H        -6.0414010267        0.0967649614        1.6286569431
 H        -7.5232632617        1.5566069175        1.9242882182
 H        -7.8142951647        3.1473889502        0.9544933111
 H        -6.2784960762        2.7626385730        1.5203658212
 H        -4.2753385129        4.4085236500       -6.6624564368
 H        -5.8729681906        4.2600760073       -7.4903734619
 H        -4.9428193002        2.8245077577       -6.7153904917
 H        -5.4820175837        5.8413746010       -3.6980980526
 H        -6.7778459006        6.1480388017       -4.8358162864
 H        -5.1457452176        6.2505067599       -5.3232121959
 H       -12.7871762880        2.8224219165       -5.7448865075
 H       -13.9499593817        4.0046543761       -5.6538160076
 H       -13.7590962205        3.1691768405       -4.2191639254
 H       -12.6783771060        5.5898652227       -6.5584987376
 H       -11.4861410580        4.2109091306       -6.7527990102
 H       -10.9131619600        5.8525709835       -6.1305287415
 H        -9.6369497766        5.8923839135        1.8852848287
 H       -11.1812181328        5.3519212444        1.8980725424
 H       -11.0638980710        6.8978496215        2.4721670884
 H       -10.7770012983        8.6835561203        0.6333078036
 H       -12.4028212091        8.3266772444        0.3104413127
 H       -11.2857781750        8.3895120400       -1.0677383491
 Na       -9.5307460643        2.7497485482       -1.1071224647
