117

 C        -8.1568627979        7.3461990930       -0.5429417019
 C        -9.3049938251        6.3872007022       -0.6703891342
 O        -9.0633950926        5.2652702006       -1.0786959788
 C       -10.8576863493        6.7995792427        0.1512801009
 C       -11.7998077322        5.7452892075       -0.6539169836
 O       -11.4773832201        4.5993210308       -0.5027623796
 C       -12.9217190127        6.3579042117       -1.4906025035
 C       -13.3341666767        5.4170983019       -2.7068595319
 C       -12.4170075801        5.5641756675       -3.7845758298
 O       -11.8274865854        6.6339991650       -4.0659224671
 C       -12.0652616231        4.3278722434       -4.7145060805
 C       -11.0719946655        3.4658301487       -3.9904470557
 O       -11.4007894404        2.8886582196       -2.9430865707
 C        -9.6532707833        3.0770264748       -4.6123189448
 C        -8.4613922872        4.0586708086       -4.5506580460
 C        -7.1602942355        3.3843796165       -5.2523150665
 O        -7.2973857424        2.4158880476       -5.9617734052
 C        -5.7397908158        3.8998093202       -5.1036995921
 C        -4.9572273400        3.2153614820       -3.8988135850
 O        -4.1344444266        3.8429193197       -3.2492072733
 C        -5.5833205114        1.8169804040       -3.3887599112
 C        -5.1888440114        1.6932710535       -1.8547061241
 C        -6.4388027433        1.9995996571       -1.1001666750
 O        -7.2725899313        2.8852407211       -1.5303765011
 C        -6.6504279737        1.1743777543        0.1831500905
 C        -8.1985514469        0.4572880244       -0.2149029363
 O        -8.6833474824        0.7870312815       -1.2686553680
 C        -8.9854333263       -0.4350437263        0.7686105880
 C       -10.4741740868       -0.5812835364        0.6571334469
 C       -11.2730613842        0.7056001970        0.9443016518
 O       -10.9144728433        1.6749021093        0.3917501271
 C       -12.4109500392        0.7048992863        2.0633360037
 C       -11.6728794356        0.6853994108        3.5085718376
 O       -10.5081610765        0.5157069483        3.4272098654
 C       -12.6122163755        0.9577714058        4.6907196000
 C       -12.1601918237        1.8369283911        5.9124072104
 C       -11.7763266900        3.3598009884        5.6059035307
 O       -11.3469169727        3.8042842320        4.5349570485
 C       -11.9709123413        4.4074342659        6.7888235369
 C       -13.4482157768        4.4864350002        7.1521255263
 O       -14.0163345994        3.7426254254        7.9845729747
 C       -14.3507820112        5.6343984599        6.3459100391
 C       -11.0270719505        3.7752892039        7.9366501678
 C       -11.3578881681        5.6796844918        6.3928085060
 C       -13.2004461669        2.0580261235        1.9620629050
 C       -13.3421030220       -0.4645085240        2.0416893204
 C        -5.4914740118        0.2017120545        0.4355213068
 C        -6.9336211763        2.1912120232        1.3683285105
 C        -4.8763825328        3.5763043149       -6.4796755339
 C        -5.6915453647        5.3787104558       -5.1433294118
 C       -13.4399761603        3.5415700825       -4.7674146441
 C       -11.5358489361        4.8340983185       -5.9696163937
 C       -10.7355295223        6.5527659981        1.7156954558
 C       -11.0698467111        8.3295248413       -0.1610301240
 H        -8.4404205231        8.2966623550       -0.7603890092
 H        -7.2362929515        7.0594052906       -1.0278984623
 H        -7.9010666104        7.4537455339        0.5358921411
 H       -12.6884725622        7.3683328995       -1.7693467673
 H       -13.8480865306        6.4779411439       -0.9886279507
 H       -14.2684592395        5.7284694362       -3.0982661619
 H       -13.5226399282        4.4475816004       -2.3887030172
 H        -9.7492929377        2.5369788911       -5.5575227521
 H        -9.3856651609        2.2961961213       -3.9088836213
 H        -8.4871880532        4.3698394659       -3.4898888694
 H        -8.7190368744        4.9157393872       -5.1750740757
 H        -5.1355222779        1.0779409936       -4.1115326885
 H        -6.6328294384        1.5956380144       -3.5779497119
 H        -4.4989880380        2.5975982343       -1.7034474365
 H        -4.7878406274        0.7462196173       -1.6117901994
 H        -8.7954042609        0.0006291985        1.7204804190
 H        -8.4417683757       -1.4205014559        0.6115709843
 H       -10.5474560584       -1.5234059748        1.1496112325
 H       -10.8299639040       -0.9636034489       -0.3233067018
 H       -13.0390636311       -0.0648452213        4.9046153371
 H       -13.4582198066        1.4683488524        4.2224265031
 H       -11.4699360175        1.3849569090        6.4838221150
 H       -13.0634506111        1.8737493968        6.6042658700
 H       -14.0953108933        6.7029243500        6.4100110088
 H       -15.3802775253        5.5584760688        6.6257379992
 H       -14.5971142397        5.5355685585        5.2515500512
 H       -10.7925952977        4.5674297791        8.6259283011
 H       -10.1275807190        3.3785081701        7.4969744721
 H       -11.6098433721        2.9822041933        8.3502615808
 H       -10.3076614589        5.4690335161        5.9830849553
 H       -11.1537907875        6.2454686923        7.3261322136
 H       -11.9987696742        6.2276152329        5.7522196546
 H       -13.4586988810        2.1776856032        0.9134326495
 H       -12.6639279941        2.7844603896        2.3866887752
 H       -14.1139145143        1.8847340792        2.5798400186
 H       -12.9179068628       -1.4674166687        2.1911254666
 H       -13.8450699832       -0.5779708070        1.1258928983
 H       -14.1029124736       -0.3639548100        2.8836309886
 H        -4.5163118053        0.5812675303        0.6011430562
 H        -5.4491243236       -0.5486033105       -0.3254503316
 H        -5.7480764430       -0.3524420098        1.3424535741
 H        -7.3088220891        1.6396934686        2.1852028815
 H        -7.7639400883        2.8814606501        1.0906936375
 H        -6.0961561316        2.9138399053        1.7892379952
 H        -3.7437049042        3.7359790365       -6.1842045120
 H        -5.2306691799        4.3084854965       -7.2217233960
 H        -4.9996378564        2.5862238769       -6.9214993662
 H        -6.4842281324        5.7528998322       -4.5779279660
 H        -5.8356093837        5.9471969231       -6.0315589528
 H        -4.8315803849        5.7828371817       -4.6080141833
 H       -13.3941317684        2.8399241030       -5.5618686594
 H       -14.3825747604        4.0119885186       -4.8869270581
 H       -13.6358214687        3.0891347663       -3.8070590614
 H       -12.1500570085        5.5176056156       -6.3695235871
 H       -11.5036466391        3.9254581960       -6.6167649934
 H       -10.5455436134        5.1971388958       -5.6829006195
 H        -9.7016117472        6.4588511690        1.9088678814
 H       -11.1509203999        5.5698018819        2.1972860090
 H       -11.1296554178        7.3550127596        2.2884621069
 H       -10.3254164626        8.9500292874        0.4057590458
 H       -12.0059406149        8.8019435918        0.1322307589
 H       -10.9210701536        8.4176469397       -1.1792130067
 Na       -9.9198333709        2.9708454554       -1.2835476925
