117

 C        -7.0658847462        7.3701158377       -1.2931046147
 C        -8.3786292513        6.5338238079       -1.4504371254
 O        -8.4508985186        5.3423785499       -1.7214984544
 C        -9.8256866931        7.3091771999       -0.7955249803
 C       -11.0491229595        6.4822231130       -1.2544094744
 O       -11.1896773181        5.2838284214       -0.9794006446
 C       -11.9673133596        7.0750903123       -2.3076579120
 C       -12.7727023497        5.9315602060       -3.0514845157
 C       -11.8679908015        5.2462546722       -4.2566481868
 O       -11.1898655041        5.9600228191       -4.9726410698
 C       -12.0496469142        3.6756643397       -4.6689304974
 C       -10.9494227426        2.7753103544       -3.8726751919
 O       -10.9539974718        2.7074290531       -2.6762960760
 C        -9.7411796757        1.9110233412       -4.7452210312
 C        -8.4724495017        2.8012062362       -4.7639314337
 C        -7.1815588105        2.2431807505       -5.4834352495
 O        -7.2908023069        1.4347007390       -6.3762667864
 C        -5.7757718888        2.9477778562       -4.7682927874
 C        -5.8129266398        2.9686135454       -3.2294536542
 O        -5.7346982119        3.9699852383       -2.5590274913
 C        -5.3975093504        1.6603667695       -2.4371295085
 C        -5.5999148167        1.7149626792       -0.9059144219
 C        -7.0227552982        1.9184029504       -0.3464134993
 O        -7.5991297979        2.9855374866       -0.7309770666
 C        -7.5880569046        1.0066027867        0.7296575803
 C        -8.9320282176        0.4114592379        0.1655017766
 O        -9.0699230318        0.3284752993       -1.0487151049
 C        -9.8918911156       -0.4409496811        1.0372896684
 C       -11.3960035514       -0.2293171745        0.5596192543
 C       -11.9443193195        1.1515122717        0.8733614189
 O       -11.4104722706        2.1299537526        0.2692049528
 C       -13.0333438468        1.3802461310        1.9541926834
 C       -12.1362366328        1.3543784385        3.3404785529
 O       -10.8981949755        1.2772879310        3.2175622991
 C       -12.8467364703        1.2926340227        4.7617751534
 C       -11.8579900986        1.9455508424        5.7838148411
 C       -11.7635254931        3.4939475845        5.6442674112
 O       -11.8166176130        3.8390592262        4.4299315558
 C       -11.5552165724        4.5325433823        6.6662382332
 C       -12.9882380719        5.1999203738        7.1849077459
 O       -13.6189961234        4.5004879418        7.9068520343
 C       -13.3119572531        6.7438229623        7.0239645364
 C       -10.7441828694        4.0786913390        7.9253287712
 C       -10.6968991068        5.6174508523        6.0189024488
 C       -13.6137269623        2.7086960815        1.6176344771
 C       -14.1244022676        0.2045152965        2.1833182799
 C        -6.6079076138       -0.2092589174        1.0642508182
 C        -7.9701439110        1.9286219288        1.9463487071
 C        -4.5631521860        2.3019818900       -5.2630423517
 C        -5.7039729949        4.3587678275       -5.3892166916
 C       -13.3325395008        2.9089599911       -4.0292702971
 C       -11.9501510161        3.5616710506       -6.1879598521
 C        -9.6179042669        7.1274158612        0.7570142487
 C        -9.9344216910        8.7993434732       -1.0949178328
 H        -6.2118662000        6.5915909130       -1.2868299355
 H        -6.9950075880        8.0280500324       -0.3947803260
 H        -6.8333510784        7.9724194549       -2.1534940478
 H       -11.3312179080        7.3915788570       -3.1467529496
 H       -12.5227927738        7.9097751017       -1.9534025145
 H       -13.5782700153        6.4826452097       -3.6450900093
 H       -13.1957168852        5.2034719629       -2.2771505326
 H       -10.0407725988        1.7111607548       -5.8113103839
 H        -9.7101759884        0.9660946350       -4.1401549363
 H        -8.0756060443        3.2235621398       -3.8614260862
 H        -8.8140450979        3.6861850722       -5.2743262946
 H        -4.3029771513        1.7698590013       -2.6315117143
 H        -5.8927363717        0.7169753833       -2.6620841144
 H        -4.8836496299        2.4475702949       -0.4073424256
 H        -5.2182330098        0.7936622408       -0.5383431242
 H        -9.7230579413       -0.1672159194        2.0073238516
 H        -9.4853331495       -1.4408146033        0.9646711456
 H       -11.9614810612       -0.9597889311        1.1100383995
 H       -11.3972685508       -0.3701800237       -0.5513483174
 H       -13.0679493762        0.2243387072        4.9751225545
 H       -13.7840503280        1.7719544599        4.6063247135
 H       -10.8868862711        1.4260116382        5.7417212407
 H       -12.3559602041        1.7429406804        6.8437551430
 H       -12.5184218641        7.3550892210        7.3650970716
 H       -14.0811502504        7.0228776487        7.8331244286
 H       -13.4473812365        7.1521548246        5.9261622992
 H       -10.5864093901        4.9511292667        8.5651759043
 H        -9.7621081927        3.6738269716        7.7792692337
 H       -11.3894406015        3.3918856423        8.4492842232
 H        -9.6573872127        5.1519646354        5.8981326825
 H       -10.3962622321        6.3295181441        6.8092286906
 H       -10.9755253240        6.1591410482        5.1396358263
 H       -13.7888692443        2.5833349999        0.5039163487
 H       -12.8318815322        3.6069885611        1.8071639663
 H       -14.6000541697        2.7629336855        2.1714744723
 H       -13.7771827747       -0.5622018518        2.8797806973
 H       -14.3740327651       -0.1956321269        1.2543919941
 H       -14.8957238144        0.8087007083        2.7555354926
 H        -5.5169982869       -0.0770956472        1.1846919705
 H        -6.6636673838       -0.8380080941        0.2781104269
 H        -7.0554411106       -0.7244418312        1.9571118982
 H        -8.4818764955        1.3800997695        2.8527229893
 H        -8.5706672345        2.7468976796        1.5678545482
 H        -7.0022765792        2.3959967839        2.3164518839
 H        -3.6000873234        2.7843318765       -5.2062590357
 H        -4.8068269838        2.2726972417       -6.3123090237
 H        -4.5959147761        1.3197834139       -4.8700059069
 H        -5.3755630850        5.2353038745       -4.8410331777
 H        -6.7034522882        4.7037161549       -5.8319485548
 H        -5.0272598577        4.2469337986       -6.2637268443
 H       -13.4329123713        1.8386836955       -3.9052052627
 H       -14.2321880196        3.1085606095       -4.5971044729
 H       -13.3117733648        3.2704512368       -2.9789190165
 H       -12.8828130128        3.9619896058       -6.5875931725
 H       -11.8663168196        2.5115823587       -6.4008127380
 H       -11.0938651089        4.1697652530       -6.6660709509
 H        -9.3038538534        8.1254201542        1.1140639423
 H        -9.0047213083        6.3154035554        1.0705599398
 H       -10.6345472110        6.8243485553        1.0657374306
 H        -8.9537086033        9.2864623806       -0.8532081775
 H       -10.7219814264        9.2646830108       -0.5011155965
 H        -9.9317527867        9.0213853848       -2.2482439194
 Na       -9.8144465272        3.5906612762       -0.6985925061
