117

 C        -7.0568033052        7.2348271524       -1.5908108610
 C        -8.3752672057        6.5996800997       -1.4110789272
 O        -8.4387790515        5.4628914675       -1.7092103409
 C        -9.7106855573        7.3207135284       -0.8198706192
 C       -10.8840707465        6.4413110969       -1.4375464633
 O       -11.1609949783        5.4248647464       -0.8987099480
 C       -11.7570063815        6.9849748177       -2.5909025164
 C       -12.7196359772        5.9292061319       -3.2782489382
 C       -11.9589517727        5.1394234713       -4.2484381609
 O       -11.0496849088        5.6687412742       -4.8829719026
 C       -12.1023794936        3.6071007640       -4.5985657562
 C       -10.8655212481        2.8338146219       -3.9740755317
 O       -10.9081225639        2.5832643344       -2.7863620483
 C        -9.7862692551        2.1109076347       -4.7670046403
 C        -8.5326965185        2.9196998752       -4.7245014757
 C        -7.1381933860        2.2287537516       -5.1839327305
 O        -7.0432308988        1.4313643090       -6.0736251999
 C        -5.8233946918        2.7378024600       -4.8489282676
 C        -5.5616191090        2.9657178867       -3.1720921076
 O        -5.8367215519        4.0248558857       -2.6722815539
 C        -5.3611457238        1.5769289587       -2.3235242156
 C        -5.5464065804        1.8150844764       -0.8198885999
 C        -7.0490334988        1.9415657007       -0.3311410466
 O        -7.6475953667        2.8552076221       -0.7607909765
 C        -7.7282957474        0.9118074265        0.7486617431
 C        -8.8620110693        0.2447728234        0.0314635470
 O        -8.9776178884        0.3686875428       -1.1627685763
 C       -10.0544984468       -0.6473484559        0.9369850592
 C       -11.4971180461       -0.2508034075        0.4377256927
 C       -11.8640760345        1.1289787886        0.8450501406
 O       -11.4506000207        2.1706573090        0.3500448570
 C       -12.9761691224        1.4864069778        2.0234455012
 C       -12.1911442372        1.3856968629        3.4073888481
 O       -11.0009087315        1.0815521945        3.4186564008
 C       -12.8393701393        1.3276415392        4.8476243707
 C       -12.0527467851        1.9884537228        5.9139269109
 C       -11.8226899447        3.5655473879        5.5015721693
 O       -11.8807982936        3.8268099033        4.3564363446
 C       -11.4686864812        4.7214367988        6.7562748528
 C       -12.8218395615        5.3184791380        7.3747199994
 O       -13.5610959759        4.5979293898        8.0142077898
 C       -13.3074141014        6.7135449589        7.1310065094
 C       -10.8643448855        4.0219644002        7.8919224017
 C       -10.5384310634        5.7884925670        5.9542773875
 C       -13.6202186716        2.8959438080        1.5519744112
 C       -14.1678004377        0.4623140781        2.2403641035
 C        -6.7691247357       -0.1542322223        1.2562350222
 C        -8.0201652907        1.9534140987        1.9874860122
 C        -4.5740493353        1.9959387134       -5.4399290669
 C        -5.6903821294        4.3654188538       -5.4176579354
 C       -13.3827703383        3.1569603825       -3.8380498342
 C       -12.0857777242        3.4899452903       -6.1327025763
 C        -9.6641891757        7.0933278777        0.7371909210
 C        -9.8447869214        8.8008216423       -1.2265218811
 H        -6.3137425476        6.4830871179       -1.1467763955
 H        -6.8570696642        8.2342191730       -1.0966031359
 H        -6.7040078905        7.2817045741       -2.5809374541
 H       -11.3568571745        7.6339689394       -3.3489000666
 H       -12.3819774786        7.6065286171       -1.8457448690
 H       -13.6764343683        6.3760249331       -3.6728395161
 H       -12.8529571562        5.1430016105       -2.4363224178
 H       -10.1238768712        1.7784691940       -5.7265998946
 H        -9.6120857688        1.2111308828       -4.0739077150
 H        -8.2631797956        3.2812566215       -3.6699079438
 H        -8.6271657317        3.8561536566       -5.2487769281
 H        -4.3263969019        1.3055832868       -2.5113570837
 H        -6.1517902434        0.8857872648       -2.6338236567
 H        -4.9723360740        2.7248603183       -0.5881435910
 H        -4.9972858837        1.1101593056       -0.2367400814
 H        -9.9329755136       -0.5402238701        2.0571479678
 H        -9.7387011583       -1.6904034708        0.7049915924
 H       -12.1743364360       -0.8332930500        1.0229857626
 H       -11.5341176344       -0.4016308508       -0.6395007981
 H       -12.9758788269        0.2513333106        4.9958406898
 H       -13.8254866550        1.7864569097        4.7165709125
 H       -11.0123959272        1.5430285059        6.0105614444
 H       -12.5512930906        1.9289534068        6.8575918817
 H       -12.5858200958        7.5544260400        7.1948353111
 H       -14.0883143046        7.0292045321        7.7715115709
 H       -13.4288645515        6.6635927650        6.1055920913
 H       -10.3157054700        4.6912306713        8.5755669185
 H       -10.1119911325        3.2551970612        7.6198640049
 H       -11.6919319099        3.5260892169        8.3883239582
 H        -9.7993305263        5.3393862857        5.2945179469
 H        -9.9376318946        6.4578526255        6.5277559077
 H       -11.2386166930        6.4328025737        5.3748810442
 H       -13.8611906398        2.6951967245        0.5067767246
 H       -12.9794653756        3.6814363034        1.6869043829
 H       -14.5757928223        2.9714601056        2.1381678474
 H       -13.9104852852       -0.2079937914        3.0559046387
 H       -14.3408764450       -0.1354623216        1.3011851795
 H       -14.9315588753        1.1023966934        2.6531984034
 H        -5.7490474882        0.1238992449        1.4886769537
 H        -6.6305001350       -0.7479692196        0.2494910188
 H        -7.1822776129       -0.7980573158        2.0224158538
 H        -8.6772083887        1.5052609916        2.8110981980
 H        -8.3397054088        3.0287248414        1.6057495324
 H        -7.0534322372        2.1374602798        2.4030287018
 H        -3.8690198805        2.7037216255       -5.5044688773
 H        -4.7316356908        1.7465840749       -6.4871695536
 H        -4.2318101448        1.1653736863       -4.8353199154
 H        -4.9409530319        5.0875576055       -4.8472792839
 H        -6.6117067007        4.9963871012       -5.5625955420
 H        -5.2034986134        4.2460627868       -6.3961196449
 H       -13.6916566322        2.0876204607       -3.7585818303
 H       -14.2682413426        3.4943609663       -4.3639486848
 H       -13.2456158357        3.5565689950       -2.8130186737
 H       -12.9702098641        3.9989333184       -6.6803603132
 H       -12.0216805005        2.4742089598       -6.3799055369
 H       -11.1849680741        4.0020789225       -6.4436204399
 H        -9.2789368475        8.0582860317        1.1602809728
 H        -9.0631683518        6.2907443118        0.9696432897
 H       -10.6543625547        6.7364547385        1.0559422153
 H        -9.0802204470        9.5001429944       -0.8781282026
 H       -10.8650070575        9.1736826147       -0.8751924199
 H        -9.7245951902        8.8131761743       -2.3399760004
 Na       -9.9680986925        3.5450439493       -0.8172830110
