117

 C        -7.0136003563        7.2726882308       -1.8264425010
 C        -8.2855332284        6.5465759335       -1.4521880445
 O        -8.5476021769        5.3667072706       -1.6911949272
 C        -9.6397901030        7.2901813263       -0.9699729640
 C       -10.8883555776        6.5413092519       -1.5093313184
 O       -11.2349176212        5.5180339961       -0.8733386234
 C       -11.6631918436        7.0080077891       -2.7243304681
 C       -12.5393394947        5.8963027085       -3.2442953832
 C       -11.6705714973        5.0704064110       -4.2866842623
 O       -10.7732346791        5.5662704341       -4.9004242728
 C       -12.1653582893        3.5446976316       -4.5084204779
 C       -10.8912135811        2.6499341524       -3.9575443349
 O       -10.8882165288        2.6209337827       -2.7160983805
 C        -9.6784219543        2.2671730856       -4.8614462325
 C        -8.3298074492        3.0260110071       -4.6540021198
 C        -7.0812813586        2.2512147767       -5.1554927917
 O        -7.2488475471        1.2356855836       -5.7765869946
 C        -5.4265056390        2.8226697041       -4.7570560171
 C        -5.5874136172        2.9219086908       -3.1944198137
 O        -5.8205733703        3.9985502345       -2.6798804405
 C        -5.4506571397        1.6937271405       -2.3521240835
 C        -5.5581319363        1.9370954706       -0.7834908437
 C        -7.0018342161        1.9555014891       -0.3269151789
 O        -7.7965476213        2.7154860447       -0.8225196243
 C        -7.6217215162        0.9419445663        0.7292302156
 C        -9.0474909338        0.2859425295       -0.0314309808
 O        -9.0251841272        0.2641390153       -1.2240990620
 C       -10.0713470927       -0.5592980284        0.6524981884
 C       -11.5195107964       -0.2287648726        0.4521046375
 C       -11.9232396974        1.2362608861        0.9864693509
 O       -11.3793376448        2.0804435153        0.4086546611
 C       -12.9759291330        1.5775732746        2.1627340684
 C       -12.1146634885        1.4348363776        3.5161410686
 O       -11.0461572474        0.9526719134        3.4817780571
 C       -12.9437947828        1.5361521767        4.8944469805
 C       -12.3280016281        2.3176140750        6.0186807047
 C       -11.9458555831        3.6768380041        5.5375482887
 O       -11.9294260430        3.9579049530        4.3747482923
 C       -11.5570969817        4.6472666056        6.6469013740
 C       -12.7912496099        5.3165726298        7.2721945652
 O       -13.3667306287        4.6073654126        8.1018915287
 C       -13.2293852807        6.7883266561        7.0811320291
 C       -10.7550118550        3.9019226451        7.8218334754
 C       -10.6055309602        5.7755676892        6.0341028259
 C       -13.5610505011        2.9777836892        1.7888558558
 C       -14.1434838934        0.6007262034        2.1066821280
 C        -6.8920691380       -0.1464880074        1.4455000007
 C        -8.1376071136        1.8294071604        1.9648967402
 C        -4.6246793428        1.7846072041       -5.3915728774
 C        -5.6360523403        4.2749053339       -5.2619969808
 C       -13.5213347192        3.1958111247       -3.8303141488
 C       -12.3897337021        3.3360049817       -6.0347130861
 C        -9.7289289691        7.1433318523        0.6391640428
 C        -9.6799317717        8.7831044661       -1.3521295957
 H        -6.1288296870        7.0780001125       -1.3569166136
 H        -7.2615814493        8.3079832139       -1.6901448614
 H        -6.6522818501        7.1047140953       -2.9201105604
 H       -10.9930708289        7.1242345457       -3.6073793500
 H       -12.1514842055        8.0173237770       -2.5167971658
 H       -13.2318967279        6.3275790929       -3.9749170711
 H       -13.0290822550        5.2714684516       -2.5463945304
 H       -10.0313889861        2.4055681497       -5.8920956768
 H        -9.4408172107        1.2245035027       -4.7623336721
 H        -8.0501253318        3.4120578317       -3.6508978118
 H        -8.2725217602        3.9679642989       -5.2870648644
 H        -4.4661939253        1.3429087297       -2.5721461793
 H        -6.2848609706        1.0449026167       -2.6516445682
 H        -5.0605892573        2.8231229833       -0.5602382741
 H        -4.9060501753        1.2238912453       -0.1990485316
 H        -9.7851406605       -0.6604423599        1.7896660894
 H        -9.6939614157       -1.5464541805        0.2151894086
 H       -12.1134565237       -1.0804944057        0.8134962268
 H       -11.6011109721       -0.0602170557       -0.5911968530
 H       -12.9466365454        0.4701693691        5.1102983516
 H       -13.9710008995        1.8510977061        4.5420983031
 H       -11.2974640094        1.9450651057        6.1027567368
 H       -12.7759436898        2.3175218602        6.9525389487
 H       -12.3870413377        7.4989605700        7.1608779415
 H       -13.8513350875        7.1456691398        7.7939659164
 H       -13.3907829304        6.9294943854        6.0734923407
 H       -10.1173647793        4.5800903283        8.3857016115
 H       -10.0214571643        3.1841905132        7.3831089381
 H       -11.4439736957        3.3176307282        8.4775747057
 H        -9.9270795790        5.5593177849        5.2903329070
 H       -10.0447127543        6.2722523048        6.8070557091
 H       -11.2856283768        6.5781624911        5.7215823235
 H       -14.0492085972        2.8867942223        0.8826222715
 H       -12.7013425788        3.5829350340        1.8073737593
 H       -14.1867253243        3.3205696101        2.5074061066
 H       -13.8184296965       -0.3109952321        2.6156476252
 H       -14.2484115578        0.3509230476        1.0114027759
 H       -14.9230450666        1.0587779330        2.6225619557
 H        -6.1294139616        0.2657511480        2.1269588725
 H        -6.2768856781       -0.7474566506        0.6823410819
 H        -7.5596916580       -0.8121389516        1.9972969570
 H        -8.8456247240        1.1651712256        2.3103120245
 H        -8.6149003357        2.8196777765        1.6310618000
 H        -7.4717277520        2.0756502930        2.8105570760
 H        -3.5983205410        2.0687550283       -5.7827286869
 H        -5.1247474068        1.6278939467       -6.3120852808
 H        -4.6386641432        0.9048662625       -4.7742150182
 H        -4.8663842258        5.0841990751       -5.2833941732
 H        -6.4935755203        4.6697441476       -4.7454176046
 H        -5.8993867838        4.1197707458       -6.3494700513
 H       -13.8085510108        2.3402006998       -4.4659018893
 H       -14.4363535708        3.7803926141       -4.0445094008
 H       -13.4594627662        2.8942090456       -2.7710140774
 H       -13.1493349328        3.9522182724       -6.4510521273
 H       -12.5435586278        2.2514001276       -6.3174016354
 H       -11.4952625875        3.6707794056       -6.4429777662
 H        -9.1381235811        7.9123781280        1.0349219099
 H        -9.2731794776        6.1180528632        0.8285566070
 H       -10.7319286302        7.0119052276        0.9478037484
 H        -9.0641392656        9.4428562624       -0.7085145179
 H       -10.7235258404        9.0829930206       -1.1335469718
 H        -9.4578971847        8.9483844055       -2.3437373726
 Na      -10.0083809913        3.4153320280       -0.9682489616
