117

 C        -7.2056774493        6.9610509395       -2.4758267798
 C        -8.3605867218        6.4655890408       -1.7371219938
 O        -8.5663184232        5.2479583302       -1.5882933696
 C        -9.4708542870        7.3276311954       -1.1093435067
 C       -10.8097616096        6.5471041797       -1.6893007138
 O       -11.3723827459        5.6887817570       -1.0493623675
 C       -11.2796606658        6.9902246168       -3.0831284986
 C       -12.3020288278        6.0768253423       -3.8073198476
 C       -11.5481211311        4.8960638604       -4.4685602471
 O       -10.4771818699        5.2024370586       -4.9456539391
 C       -12.1241360401        3.3342646910       -4.5811585923
 C       -10.8531712574        2.6218163289       -4.2357547198
 O       -10.8190737560        2.1631651457       -3.0721792188
 C        -9.6621350963        2.5883606604       -5.1586257225
 C        -8.5314687703        3.0515811908       -4.3404665538
 C        -7.2044552927        2.1403559419       -4.5837655400
 O        -7.4381299453        0.9786979158       -4.7960628728
 C        -5.6697058063        2.6267850904       -4.5584871789
 C        -5.4560429427        2.9719318611       -2.9748545541
 O        -5.4971496970        4.0536890752       -2.3917030074
 C        -5.4641692482        1.5624631928       -2.1884003546
 C        -5.7159857855        1.7364671865       -0.6455228909
 C        -7.2141434358        1.9350236108       -0.4671408008
 O        -7.8476961012        2.7230721328       -1.0922802584
 C        -7.9415065881        1.0568681738        0.6620260053
 C        -9.1490856581        0.2286254113       -0.2194553913
 O        -9.3313482203        0.1642622866       -1.3781797492
 C       -10.1006993460       -0.6411462209        0.6722729531
 C       -11.4561225050        0.0264876136        0.5889051199
 C       -11.7042182519        1.4770197414        1.2164404938
 O       -11.2282208186        2.3972587832        0.6819092528
 C       -12.8953569005        1.6977288224        2.2611866709
 C       -12.3930339581        1.3107099334        3.7568894078
 O       -11.3143266417        0.9030801709        4.0042221499
 C       -13.3912526438        1.7256652832        4.8817049340
 C       -12.8196093084        2.6716226414        5.9271312966
 C       -12.0831505004        3.9320103730        5.4544980560
 O       -12.1196240625        4.5774921095        4.4579325198
 C       -11.3577510589        4.6984079888        6.6742120007
 C       -12.5602710138        5.3587796017        7.3728658026
 O       -13.0673151833        4.6514870794        8.2544646583
 C       -13.0786411688        6.7096368479        7.0950961936
 C       -10.4373987262        3.8767575405        7.5942637382
 C       -10.4867531955        5.8407946078        6.1301333745
 C       -13.3443234735        3.1625361351        2.0743580318
 C       -14.1399112381        0.8915597542        1.8320447951
 C        -6.9679084263       -0.1512775498        1.2408145554
 C        -8.5135676056        1.8772633811        1.7746244222
 C        -4.8298457604        1.3782479223       -4.8814486723
 C        -5.4326670059        3.8433337336       -5.3578989419
 C       -13.3208394962        3.1074619752       -3.6363537178
 C       -12.5290151029        3.1549574006       -6.0416418104
 C        -9.3428438847        7.1792442765        0.5218283135
 C        -9.4588603951        8.8469231287       -1.6044306493
 H        -6.9696310756        7.9056441164       -2.0279758721
 H        -7.3664974788        7.2865007798       -3.5332823425
 H        -6.1729881495        6.4180687369       -2.3468540676
 H       -10.3846510422        7.1802666308       -3.5974576973
 H       -11.8381434384        7.9475911449       -3.0273657596
 H       -12.8033328601        6.6273926622       -4.6735923691
 H       -13.1433981159        5.8446805726       -3.0481486290
 H        -9.7843812269        3.2156914090       -6.0230727359
 H        -9.5409244044        1.5642958086       -5.6741059880
 H        -8.7735158031        2.9230773117       -3.2538662568
 H        -8.3003095201        4.0580200067       -4.5547901350
 H        -4.4814722985        1.0706615176       -2.2994097863
 H        -6.2993309436        0.9774372597       -2.6574965340
 H        -5.1080772511        2.4647585144       -0.0841033703
 H        -5.3220143201        0.8081208081       -0.2190992677
 H        -9.6584142649       -0.7287977177        1.6689433588
 H       -10.1687232792       -1.5837420898        0.2249675279
 H       -12.0806796245       -0.7556173980        1.0508305230
 H       -11.7238247495        0.1105750296       -0.4780153423
 H       -13.5623104926        0.8370752983        5.4531024507
 H       -14.2788221108        2.1010789027        4.3885222309
 H       -11.9982531538        2.1584436539        6.6015369100
 H       -13.6393642584        2.9192504371        6.5812434659
 H       -12.4090826908        7.5921768971        7.5420152103
 H       -14.0095193583        6.8046946291        7.6051314264
 H       -12.8994512441        6.9553872159        6.0795622904
 H        -9.9536572624        4.5147218009        8.3224654686
 H        -9.6808314204        3.4888951547        6.9032318154
 H       -10.7642645625        2.9874481916        8.0862764411
 H        -9.4512718747        5.5180699053        6.0554236394
 H       -10.5708623532        6.8619409808        6.5233049415
 H       -10.7885985972        5.9986416009        5.0238839788
 H       -13.7475691399        3.2192039170        0.9770042587
 H       -12.3879289744        3.6616043053        2.2896503472
 H       -14.0832040974        3.6068894480        2.7328937186
 H       -13.7264984234       -0.0084953495        1.3827518730
 H       -14.7401916323        1.4972690160        1.0715595108
 H       -14.6945511099        0.7079237532        2.7012380224
 H        -6.1791882109        0.1573422765        1.8569394831
 H        -6.6635371253       -0.9764606757        0.4775177415
 H        -7.6438884160       -0.5816225345        1.9143339524
 H        -9.0823373212        1.2473919685        2.4811111696
 H        -9.0586341849        2.7952856017        1.2672786993
 H        -7.6843845094        2.4310393159        2.2885855846
 H        -3.9559092023        1.4756686060       -4.2787147477
 H        -4.4658571738        1.3127760962       -5.8933996127
 H        -5.4191022378        0.4899600162       -4.6248086984
 H        -5.7299903129        4.1157261883       -6.4164142743
 H        -4.5286083265        4.2864099634       -4.9764806752
 H        -6.1000616526        4.5059139483       -4.7994843301
 H       -14.0389435417        2.3215218661       -3.9684300287
 H       -13.7608004225        4.1012862328       -3.6748969661
 H       -13.0742240990        3.0437087744       -2.5937127000
 H       -13.5471814158        3.6345044469       -6.2429072329
 H       -12.6062384746        2.0787336411       -6.3221724561
 H       -11.8364292973        3.6316996256       -6.7054274629
 H        -8.3879601906        6.6682161942        0.6779122771
 H       -10.2038345067        6.5746142549        0.8512631937
 H        -9.4240480835        8.1954496144        0.8693523015
 H        -8.4442965478        9.2156882636       -1.3805780836
 H       -10.1242422886        9.5658705531       -0.9789433720
 H        -9.8257836200        8.9410794905       -2.6006795620
 Na      -10.0087415814        3.4586641293       -1.0933895048
