117

 C        -7.1262124326        6.8532646413       -2.8582064153
 C        -8.3678504418        6.2493872395       -1.9668922467
 O        -8.5101028118        5.0916633499       -1.7548798769
 C        -9.3722017480        7.2912920478       -1.3447796795
 C       -10.7162761187        6.6700106509       -1.9114204560
 O       -11.2760164477        5.7673107387       -1.3136498870
 C       -11.3588410044        7.1866904348       -3.2414152664
 C       -12.3640222244        6.1376681013       -3.8276296250
 C       -11.5831430710        5.0732239872       -4.6209529639
 O       -10.5640356315        5.2619761095       -5.2470282241
 C       -12.1123300924        3.4990281167       -4.5575830731
 C       -10.7426343710        2.5652775092       -4.1205404710
 O       -10.8530817507        1.9943303685       -3.0945050343
 C        -9.5896260694        2.3236520185       -5.0929600162
 C        -8.2850178455        2.9574865667       -4.4794762194
 C        -7.2837581757        1.8607355862       -4.4220297724
 O        -7.4653777265        0.6653055525       -4.2593751533
 C        -5.7744475034        2.3957268227       -4.4312924578
 C        -5.3560130477        2.6652244895       -2.8219421182
 O        -5.1484696153        3.7659688200       -2.4152392469
 C        -5.0255560840        1.4971554992       -1.7410757639
 C        -5.6755741769        1.7861613690       -0.3743215338
 C        -7.1559548643        1.7729854566       -0.4425310662
 O        -7.7750368279        2.6243727901       -1.1220081603
 C        -7.9205224715        0.8870286769        0.5704936882
 C        -9.2781740341        0.4349064188       -0.0646967700
 O        -9.3398406626        0.2532984708       -1.2622498133
 C       -10.2914526678       -0.3574610952        0.8856194261
 C       -11.7537484094        0.0423560068        0.7270558003
 C       -11.9238818478        1.4392741867        1.1004268820
 O       -11.0570219524        2.3280047459        0.7562653658
 C       -13.0507576858        1.9073643497        2.1027966160
 C       -12.6477775654        1.6597203984        3.6662276123
 O       -11.7424906338        0.8555115103        3.9713870136
 C       -13.5719399011        2.1918653530        4.7805686697
 C       -12.6893240446        2.7158841525        5.9781646365
 C       -12.1631023609        4.0787799247        5.6627855672
 O       -12.3931364952        4.5237738964        4.5348241204
 C       -11.1794325230        4.8755889502        6.7793258070
 C       -12.3144812841        5.3972731097        7.6222821791
 O       -12.8161015724        4.7007407209        8.4612137398
 C       -13.0445201230        6.7679097320        7.2118308861
 C       -10.4091284640        3.8275413404        7.5595876016
 C       -10.2694156748        5.9528884716        6.0726363269
 C       -13.3519816464        3.4377372610        1.9192166185
 C       -14.3425999513        0.9653761425        1.9954668609
 C        -7.2358407898       -0.3342781309        1.2062842401
 C        -8.2825582865        2.1063468372        1.6950830560
 C        -4.6901428996        1.3775919389       -4.9191896250
 C        -5.5178487911        3.7221331729       -5.2259728522
 C       -13.3645374088        3.1938485315       -3.6470814603
 C       -12.4764916641        3.2343982624       -6.0281777022
 C        -9.4036821484        7.1286468450        0.2332899115
 C        -9.2594254489        8.7704198897       -1.6397900734
 H        -7.3476240746        7.6722507227       -3.6525558313
 H        -6.7740264671        6.1352200885       -3.5315756824
 H        -6.3641230282        7.2284563197       -2.3406940477
 H       -10.5445094060        7.4602395066       -4.0307659571
 H       -11.9545504931        8.0860009507       -3.0638252821
 H       -13.2281149509        6.5177838696       -4.3368390998
 H       -12.8067751978        5.5848797484       -3.0229275473
 H        -9.7580719513        2.6049049057       -6.1640873708
 H        -9.5833170495        1.2788835494       -5.1995310545
 H        -8.5516399854        3.2816145790       -3.4690410126
 H        -7.7997721442        3.7452456349       -5.0472176862
 H        -3.9289983226        1.4629016215       -1.7311649582
 H        -5.4011498112        0.6183791654       -2.2402784461
 H        -5.3850114044        2.7908229562       -0.0434526552
 H        -5.1835606883        1.1458804248        0.3346062725
 H        -9.8605232952       -0.3241658143        1.9094344206
 H       -10.1748575739       -1.4609496055        0.5106771019
 H       -12.3539969107       -0.6049350185        1.3379643351
 H       -12.1455937981       -0.1091634775       -0.2938934314
 H       -14.0851167817        1.2824831053        5.2209499702
 H       -14.2817739182        2.9101910475        4.3485466734
 H       -11.8731743706        2.1205510982        6.1670310966
 H       -13.3700857225        2.7009751358        6.8541947742
 H       -12.7116729802        7.6403053923        7.6821168048
 H       -14.0813762274        6.6636722097        7.4984603055
 H       -12.8485175628        7.1025603251        6.1915600149
 H        -9.6233414901        4.3750189389        8.1321429636
 H       -10.0181318755        3.0103973843        6.9400483851
 H       -10.9496328317        3.3176810910        8.3877523738
 H        -9.3080783108        5.4219519142        5.8892583163
 H       -10.1386213942        6.7073258090        6.8483049367
 H       -10.4606082690        6.5022666229        5.2235485979
 H       -13.0009475484        3.7158096929        0.9447375803
 H       -13.1239772183        4.1096371843        2.6521357375
 H       -14.4260989346        3.5650294678        1.6799544220
 H       -14.1362656334        0.0288760864        2.5276376483
 H       -14.5136854227        0.8342480189        0.9732815065
 H       -15.1996195725        1.6067841401        2.4001311111
 H        -6.2127915361        0.0187497450        1.4883029439
 H        -7.1553776999       -0.9588068302        0.3513254146
 H        -7.6666739326       -0.8477078768        2.1234892145
 H        -9.1239523211        1.6176042463        2.1908729142
 H        -8.5005345554        3.0715859456        1.2370524926
 H        -7.4879379614        2.2424710478        2.3870135134
 H        -3.7832251746        1.8664505770       -4.6138700971
 H        -4.7283276684        1.1255550565       -6.0106313604
 H        -4.7832679882        0.3694016695       -4.4850957289
 H        -6.4159281203        4.2462057584       -5.4182229633
 H        -4.8733886690        3.4848026194       -6.1013904485
 H        -4.9572795971        4.5777109203       -4.8073198469
 H       -13.0161358751        2.2765309064       -3.1604761716
 H       -14.4098592535        3.2940999052       -4.0085653227
 H       -13.4053181639        3.9791782994       -2.8362640797
 H       -13.4066343493        3.7520746605       -6.2276610487
 H       -12.6648013414        2.2604869621       -6.3464147670
 H       -11.6718354890        3.6962127918       -6.6450028867
 H        -8.7696054248        6.2730199975        0.4305155720
 H       -10.3946187861        6.9290984115        0.5410457035
 H        -8.9413792647        8.0739240183        0.5883629025
 H        -8.3950823603        9.1753253795       -1.1735364174
 H       -10.0926163878        9.2541014162       -1.2600349095
 H        -9.4279986691        8.9636249870       -2.7324724817
 Na      -10.3197388973        3.4515683006       -1.2223185312
