117

 C        -7.2636151077        6.7883213086       -2.9788151141
 C        -8.2617360896        6.2175955838       -1.9914510155
 O        -8.4547367154        5.0226035404       -1.9856175207
 C        -9.3519387962        7.2413092994       -1.4259897952
 C       -10.7265201290        6.6877543022       -2.0738659619
 O       -11.2412168804        5.7629604697       -1.5062345129
 C       -11.4381783808        7.1956705577       -3.2804200210
 C       -12.3131146947        6.0922139310       -3.8522503061
 C       -11.5151241987        4.9824518793       -4.4947343675
 O       -10.6829380906        5.3367535625       -5.3316406746
 C       -12.0922500748        3.5702623133       -4.6199903401
 C       -10.8908016543        2.5883654680       -4.1285472778
 O       -11.0160723413        2.1868159893       -3.0060457721
 C        -9.8000233450        2.1836697646       -5.0319797455
 C        -8.4439452906        2.8241206631       -4.5253826125
 C        -7.1166914203        1.7663844538       -4.3830061211
 O        -7.4577176831        0.6845524827       -4.0342645300
 C        -5.5499046472        2.2800007093       -4.3699781480
 C        -5.1947168046        2.5627393694       -2.8693643047
 O        -5.0693692353        3.7288686114       -2.4632853859
 C        -4.8995979587        1.4058497885       -1.6254914555
 C        -5.5530698549        1.8655366594       -0.3689507291
 C        -7.1698796200        1.8106557044       -0.3460742389
 O        -7.8214548104        2.3719747425       -1.1686347771
 C        -7.9727207943        0.9549401556        0.7303461440
 C        -9.3085918706        0.3997431619        0.0012515410
 O        -9.4350734197        0.3965632553       -1.1685481064
 C       -10.3267730763       -0.3172918776        1.0019553378
 C       -11.8059487167        0.0918523345        0.8015795633
 C       -11.9761193729        1.4881297137        1.1901200590
 O       -11.1562572989        2.3130890482        0.7840884757
 C       -13.2446842581        2.0074736466        2.0523053552
 C       -12.7643175544        1.6699841266        3.5883067833
 O       -11.8669561775        0.9052898645        3.8054542299
 C       -13.5770593405        2.4336212187        4.6495487845
 C       -12.6946516335        2.5925659650        5.8496838634
 C       -12.0795066639        4.0598495899        5.6876386055
 O       -12.2826671922        4.8511034986        4.7818981296
 C       -11.2007234475        4.7760435698        6.8471490243
 C       -12.3584582295        5.4933622721        7.6958976831
 O       -12.7643150404        4.8661374073        8.6515414643
 C       -12.9972298855        6.8018255552        7.3153325950
 C       -10.2366570785        3.8280477670        7.4944798199
 C       -10.3586719948        5.8276258926        6.0604612480
 C       -13.4697745704        3.4704677580        1.7789646040
 C       -14.4417018014        1.1026563954        2.0345362951
 C        -7.3117310450       -0.3809063041        1.1806768408
 C        -8.3004601325        2.0756414377        1.7875283682
 C        -4.5714468871        1.3133563466       -4.9579339688
 C        -5.3191719104        3.6252849615       -5.1339267641
 C       -13.1881135794        3.2538902309       -3.6122694546
 C       -12.3658756749        3.2350643345       -6.0748433753
 C        -9.4347224104        7.0490901927        0.1777386782
 C        -9.0896460632        8.7331702178       -1.7858841596
 H        -7.5848016635        6.9958346042       -3.9871982153
 H        -6.4463495318        6.1313179038       -3.1613001401
 H        -6.8527367618        7.7248150703       -2.5709896682
 H       -10.8669393141        7.6648140503       -4.0855149942
 H       -12.1018222022        7.9838999685       -2.8875744353
 H       -13.0000306788        6.4285359805       -4.5511463959
 H       -12.9971793475        5.6500973224       -3.1197948515
 H        -9.9717995370        2.5595650776       -5.9873689282
 H        -9.9265026868        1.1185556462       -5.2435033988
 H        -8.6844977473        3.0334672498       -3.4827925599
 H        -8.2241983784        3.6806892259       -5.0370571725
 H        -3.7997470642        1.5347169583       -1.5506127340
 H        -5.0504919805        0.3673853569       -1.9188333120
 H        -5.1327457381        2.9225286201       -0.1922409888
 H        -5.0737020243        1.2907972866        0.3783998634
 H       -10.0406034067        0.0182102647        1.9820698048
 H       -10.1844223756       -1.3549551409        1.0020158778
 H       -12.3297070040       -0.5681418521        1.4938356511
 H       -12.3863801927       -0.0520607309       -0.1504341272
 H       -14.3890839924        1.7213808518        4.9531896428
 H       -13.9799227212        3.3431361604        4.2645010876
 H       -11.8156322936        1.8832425000        5.8320780227
 H       -13.2214401041        2.4362007758        6.8073705277
 H       -12.4812669121        7.7716218264        7.8403463992
 H       -14.0954524665        6.8274813995        7.5500669086
 H       -12.7737034326        7.0865540733        6.2758359647
 H        -9.4296907219        4.4905014012        7.8535266179
 H        -9.9167553065        2.9850945170        6.8846864217
 H       -10.5253368094        3.3956794070        8.4567632390
 H        -9.6484954345        5.3311842782        5.4242232295
 H        -9.9003266275        6.4367154026        6.7763579575
 H       -10.7949072611        6.5828056095        5.3934804615
 H       -13.0414251874        3.8603919726        0.7539211080
 H       -13.2598459282        4.2246067239        2.5785925574
 H       -14.5554911648        3.6146805465        1.5209208496
 H       -14.3930264606        0.5075742521        2.9013269840
 H       -14.3513365350        0.4920661632        1.1335698161
 H       -15.3371594543        1.6836817643        1.9305096772
 H        -6.4902513800       -0.3686451924        1.8356125244
 H        -7.0613382267       -0.7372561751        0.0845676050
 H        -8.0402952015       -1.0373824010        1.5972648589
 H        -8.9853138456        1.7886038960        2.5868896185
 H        -8.6841672228        3.0159252906        1.1954589741
 H        -7.3404616909        2.3291473928        2.1073917978
 H        -3.6634515996        1.8451922016       -5.0792755199
 H        -5.0216435566        0.8256169307       -5.8854135207
 H        -4.3926167851        0.3614891176       -4.3455584934
 H        -6.1770509485        4.2615904470       -4.8530420338
 H        -5.2256203321        3.3890469422       -6.1686426122
 H        -4.5350748142        4.2308020281       -4.9974398424
 H       -12.8184263485        2.4113307507       -2.9704789632
 H       -14.1828097777        3.2073784291       -4.0157321068
 H       -13.4107236548        4.0670632613       -2.9510551048
 H       -13.2365734634        3.7457061571       -6.6017216766
 H       -12.7142123515        2.2432860943       -6.0835540823
 H       -11.4788471785        3.2899156499       -6.6500133088
 H        -9.2205708586        5.9891909832        0.4754761272
 H       -10.4228371100        7.2541376430        0.4172716042
 H        -8.6612365496        7.7871478180        0.5116053258
 H        -8.2862697445        9.0599651319       -1.2232252715
 H        -9.9679168492        9.3651147980       -1.6809467165
 H        -8.9287715114        8.8290451747       -2.8415687320
 Na      -10.2892191445        3.3525146253       -1.2328476888
