117

 C        -7.2078993003        6.6980206236       -3.0902563568
 C        -8.3258784832        6.2253977512       -2.2793158918
 O        -8.4489884791        4.9694598240       -2.0406360662
 C        -9.4212353723        7.2005479688       -1.5438773322
 C       -10.8400728672        6.6668948172       -2.0150073543
 O       -11.1453174079        5.5394378022       -1.5712347617
 C       -11.4303695682        7.3443152415       -3.2782879532
 C       -12.3817095271        6.3167122550       -3.9030433355
 C       -11.5968183092        5.0636524035       -4.7577076103
 O       -10.5927657851        5.3739600189       -5.3385315766
 C       -12.0815200229        3.4412085366       -4.6129392440
 C       -10.9277916483        2.5427109028       -4.0892944222
 O       -10.9032250312        2.2544354750       -2.8433809050
 C        -9.6241368859        2.0771666231       -4.9094978681
 C        -8.3108475359        2.7315458119       -4.5294763152
 C        -7.0771237750        1.7525168226       -4.2042840271
 O        -7.2543056552        0.5898874506       -3.9157243156
 C        -5.5947643456        2.1936539774       -4.2420257458
 C        -5.0830315838        2.5728603784       -2.7825055539
 O        -5.0024618076        3.7162437599       -2.4674902336
 C        -4.9516978307        1.4742609543       -1.7500203047
 C        -5.6905744186        1.8646917174       -0.3889978323
 C        -7.2226825388        1.6355073997       -0.4348010630
 O        -7.7497295597        2.3367667066       -1.2896961384
 C        -8.0130104104        0.9990985045        0.6947149049
 C        -9.4194014599        0.4763061343        0.1616956499
 O        -9.6486008398        0.5175459153       -1.0613852788
 C       -10.3253737494       -0.3017263298        1.1580328356
 C       -11.8018801072        0.0423626954        0.8976057903
 C       -12.0858227389        1.6224189221        1.1236960051
 O       -11.3384305605        2.4750595871        0.7865758783
 C       -13.3545009321        2.0491382251        1.9961943242
 C       -12.7886765435        1.8461390016        3.4600390057
 O       -11.9961277231        0.9857835822        3.6597808486
 C       -13.5251247815        2.5530524387        4.5928448023
 C       -12.5855838402        2.8479947729        5.8283910484
 C       -11.9908315957        4.2219014253        5.6923696577
 O       -12.4314445971        4.8680183382        4.7917802549
 C       -11.0785475062        4.7922726291        6.8784292442
 C       -12.3487176112        5.4882360599        7.8617620341
 O       -12.7169410681        4.9635502287        8.9127977908
 C       -12.8343270293        6.7634088900        7.3928923993
 C       -10.1966541359        3.7882903329        7.5966112230
 C       -10.3191286777        5.8488903421        6.0848224241
 C       -13.5834440703        3.5193242861        1.6583774266
 C       -14.6473333162        1.1268201561        1.8174159825
 C        -7.2254322506       -0.2594844292        1.2454417371
 C        -8.2762791316        1.8565090389        1.9873183598
 C        -4.6071167590        1.0501884338       -4.9633961283
 C        -5.3317923049        3.5278926133       -5.0026447057
 C       -13.3835337684        3.3040138474       -3.7136639103
 C       -12.4700992432        3.2069519997       -6.1200355505
 C        -9.4360820624        6.9517423266       -0.0168674513
 C        -9.0041456194        8.6004975946       -1.9220731914
 H        -7.1701956113        6.4653631158       -4.1058586244
 H        -6.1615567895        6.2953321590       -2.8123135865
 H        -7.0916480925        7.8495463657       -2.9910412834
 H       -10.6956718589        7.4934671910       -3.9941831814
 H       -11.8347021398        8.3400947928       -3.0381968420
 H       -13.0976986279        6.8414581703       -4.5732000220
 H       -13.1387805807        5.8558553854       -3.2139204025
 H        -9.7744901750        2.0728834930       -5.9981489513
 H        -9.5565036472        0.9618367099       -4.7420534476
 H        -8.5215818755        3.2444266275       -3.6183385927
 H        -7.8965858104        3.4128189761       -5.2831020687
 H        -3.8745737553        1.2020767167       -1.7679000404
 H        -5.4201324511        0.5557553026       -2.1986757302
 H        -5.4805298007        2.9234280847       -0.1652028093
 H        -5.1339790767        1.2298976102        0.3612557875
 H        -9.9667508716       -0.2656297466        2.1462481778
 H       -10.1482967781       -1.2641241862        0.8525309414
 H       -12.4138356027       -0.7325243257        1.4383590270
 H       -12.0735368331       -0.2013469053       -0.1501888195
 H       -14.2980549272        1.8694887067        4.8577959240
 H       -13.9694154368        3.4910109641        4.2205537581
 H       -11.6770603500        2.1140690367        5.9400524113
 H       -13.1048413894        2.8329575945        6.8075646296
 H       -12.2042320715        7.5832871822        7.7895567977
 H       -13.9403354955        6.9180270818        7.7546561829
 H       -12.7616890799        6.9614571863        6.2376995191
 H        -9.4293398393        4.2971122266        8.1147221322
 H        -9.8564366515        2.8994973234        7.0580235525
 H       -10.7294195601        3.4153543860        8.4614562310
 H       -10.0479888266        5.5702535972        5.1103276591
 H        -9.5262239062        6.3724842882        6.6013619949
 H       -10.9996377257        6.7098559579        5.8443569114
 H       -13.2258371787        3.9249116790        0.6802196751
 H       -13.1999803236        4.2651319421        2.5530986991
 H       -14.6853301647        3.7415835582        1.5954574085
 H       -14.9450247045        0.6958896036        2.7536046222
 H       -14.5122379264        0.4107753879        0.9835697521
 H       -15.3665669000        1.7741041866        1.4473830231
 H        -6.6064647880       -0.0370164922        2.1093959129
 H        -6.6629941206       -0.7455103654        0.4860330599
 H        -8.0111678003       -0.8849187481        1.5930251088
 H        -8.6518971098        1.2954141279        2.8803465884
 H        -8.9849571914        2.6284814840        1.7122551290
 H        -7.2085106542        2.3705150173        2.1163322418
 H        -3.6076007120        1.4809456673       -5.3020920028
 H        -5.2223396865        0.5346389447       -5.6465105366
 H        -4.4061378185        0.2053646578       -4.2934544439
 H        -5.5306332047        4.3990951593       -4.4163324149
 H        -5.7390320320        3.5316309641       -5.9638218943
 H        -4.2917159036        3.7002988006       -5.2830027962
 H       -13.5250498228        2.3387673542       -3.2379921234
 H       -14.0639620063        3.6587306450       -4.4335627552
 H       -13.6716123657        4.0024069014       -2.9801437461
 H       -13.3290714977        3.7960910424       -6.3602616052
 H       -12.9826329799        2.1531414822       -6.2493171565
 H       -11.6571341092        3.3081947089       -6.8014580432
 H        -9.8828901056        5.9928991800        0.2251118546
 H       -10.2594035515        7.7193344443        0.2493948340
 H        -8.4389898489        7.0923955550        0.3088085045
 H        -8.0318175337        8.7880563065       -1.3891399604
 H        -9.7705505536        9.3833237262       -1.7493093801
 H        -8.8252237673        8.6501271038       -2.9384147970
 Na      -10.0909634179        3.2636072371       -1.1587750821
