117

 C        -7.0884971099        6.4508291674       -3.2163519006
 C        -8.2549076090        5.9432641760       -2.3480079845
 O        -8.4434476932        4.7914707341       -2.1993112089
 C        -9.3185249067        6.9796894768       -1.7512869239
 C       -10.7306219626        6.4126352670       -2.2682445114
 O       -11.1132878125        5.3427771401       -1.8855048779
 C       -11.5358978006        7.1548776059       -3.4145376012
 C       -12.4782512306        6.2579707223       -4.2880713633
 C       -11.5586011507        5.0578924301       -4.7970767299
 O       -10.4606369003        5.3507495303       -5.2771248309
 C       -12.0320165669        3.4489243097       -4.7871130040
 C       -10.8509627376        2.7086182854       -3.9609097216
 O       -11.0678068517        2.6685057843       -2.8055829633
 C        -9.7235817033        2.0076582945       -4.6264264347
 C        -8.2548974617        2.7251542421       -4.4738159683
 C        -7.0766044279        1.6723915452       -4.1054664156
 O        -7.2520771555        0.5594942908       -3.7059160902
 C        -5.5418372713        2.1339370081       -4.2305950556
 C        -5.1010101079        2.4841018056       -2.7424757417
 O        -4.8670180099        3.6272501968       -2.3051946513
 C        -5.2080763666        1.3458846538       -1.7444172763
 C        -5.6899015524        1.6980078104       -0.3442776721
 C        -7.1739457840        1.5876857545       -0.3783879017
 O        -7.7949114722        2.2214580022       -1.2016152811
 C        -8.0370263536        0.9135161063        0.8008253958
 C        -9.5069158023        0.5007121228        0.3424398294
 O        -9.8860100592        0.8024036473       -0.7266957785
 C       -10.5156411752       -0.1906583866        1.3797451609
 C       -11.8979423163        0.2428866462        0.9761781053
 C       -12.1924378337        1.7261861872        1.0722521090
 O       -11.5566714445        2.6445550285        0.4947294748
 C       -13.4946692148        2.1668311999        1.9185462555
 C       -13.0506384808        1.8493950882        3.3897937477
 O       -12.0205704339        1.1820840032        3.5434788234
 C       -13.6992867662        2.6024940184        4.6404377662
 C       -12.6636416662        2.9341021035        5.6775328052
 C       -12.0152468924        4.4432259605        5.7499406349
 O       -12.4069088463        5.2299575814        4.8810964316
 C       -11.1634005538        4.9213993809        6.8633756953
 C       -12.0914060049        5.5955156761        7.9287562773
 O       -12.2114658788        5.0333844141        8.9809308368
 C       -12.8352327366        6.9531586394        7.6728980261
 C       -10.4443647376        3.7453291744        7.5994536862
 C       -10.0294420428        5.9513237190        6.4996102440
 C       -13.8892583341        3.5950981985        1.6813588087
 C       -14.6888219775        1.3281794391        1.3793313925
 C        -7.1257513023       -0.2971826018        1.1843700058
 C        -8.1976505454        1.8779295853        1.9500339305
 C        -4.7656503959        0.9609694234       -4.6844370071
 C        -5.3749474952        3.2780457342       -5.1999024617
 C       -13.3172692715        3.3716016738       -3.8931169728
 C       -12.2324628925        3.0426540856       -6.1859608500
 C        -9.1171292262        6.7953858910       -0.1973184178
 C        -9.2850492327        8.4694256967       -2.1202212726
 H        -6.9842862647        5.6369865223       -3.9845672229
 H        -6.0968289689        6.5133827389       -2.8539779444
 H        -7.1386047206        7.3997525690       -3.7163097963
 H       -10.7499126786        7.5427116515       -4.1881608549
 H       -12.0600749565        8.0221007091       -3.0034799483
 H       -13.0638331346        6.7881410016       -5.0425155784
 H       -13.2723134285        5.8427406532       -3.6807300109
 H        -9.8463319044        1.8341764317       -5.7113920480
 H        -9.5939521113        0.9650616078       -4.2843591475
 H        -8.2706289029        3.4080853632       -3.5537536653
 H        -7.9907180409        3.3256957868       -5.3608584320
 H        -4.2093484815        0.9210177084       -1.7710083265
 H        -5.7191387785        0.5269952898       -2.2203920919
 H        -5.3837718666        2.7567811865       -0.1960037547
 H        -5.1685032110        1.0476337312        0.2901917254
 H       -10.2607377729        0.2190139852        2.4155109072
 H       -10.2707620848       -1.3261763578        1.4856458173
 H       -12.5832165042       -0.3234714352        1.5405231979
 H       -12.1552015621       -0.1100168416       -0.0295673434
 H       -14.2773058715        1.7436673372        5.0883152069
 H       -14.3621987953        3.4026558167        4.3575463326
 H       -11.8843158034        2.2883997054        5.4487219724
 H       -12.9488938184        2.7042422331        6.7057521970
 H       -12.0867529627        7.7566928555        7.4221370497
 H       -13.3067726345        7.2763150238        8.5096128152
 H       -13.5158614104        6.9901635779        6.9090244122
 H        -9.9529368604        3.8521248206        8.5718948400
 H        -9.7761708516        3.2252238498        6.9156324656
 H       -11.1959357874        3.0036408952        7.8428541301
 H        -9.5005399933        5.7001368268        5.5209778152
 H        -9.3319784179        6.1505889292        7.3149787810
 H       -10.3952507298        6.9212054168        6.1960443082
 H       -14.1618383702        3.7908797118        0.6549569005
 H       -13.0656181247        4.2000669960        1.7279555153
 H       -14.6243463055        3.9871952631        2.2849011321
 H       -15.3516539368        1.2909149539        2.2814371827
 H       -14.4055016151        0.3036317759        1.0991476967
 H       -15.2474040551        1.7588680506        0.4792870985
 H        -6.2249975593        0.2182072229        1.4808872915
 H        -6.8108328547       -0.8400742855        0.1796916794
 H        -7.5028941909       -1.0253964424        1.9130219069
 H        -8.4783414928        1.2707649839        2.8046767881
 H        -9.1913824067        2.4348662229        1.6827556374
 H        -7.3899621282        2.4601602974        2.1834686577
 H        -3.7713252710        1.1997393738       -4.5981696390
 H        -5.0869073048        0.6565179563       -5.6955913535
 H        -4.8932159080        0.0941484211       -4.0566912330
 H        -5.3244220213        4.2684581954       -4.6383673341
 H        -6.0735876982        3.3522769464       -6.1125487647
 H        -4.3850256996        3.3121346950       -5.6466941617
 H       -13.9590088311        2.5392852459       -4.1211612771
 H       -13.7587010805        4.3320783838       -3.6439290029
 H       -13.0102626389        3.0215221246       -2.8963507070
 H       -13.1323267276        3.6605514792       -6.4692253507
 H       -12.4911916781        2.1052164585       -6.4634100150
 H       -11.3922452199        3.4365608514       -6.7818195509
 H        -9.9515308569        6.2680802822        0.2556208366
 H        -9.1388624832        7.7263309243        0.1512269027
 H        -8.1821621527        6.2127881875       -0.1072420680
 H        -8.2792195225        8.8612434127       -2.0018777685
 H        -9.9481292656        8.8648593115       -1.3287286749
 H        -9.6493838051        8.8940569340       -3.1255056365
 Na       -9.7091404832        3.2440615571       -0.8972498882
