117

 C        -7.0275634498        6.4615825795       -3.6264983244
 C        -8.0778236889        5.7958814048       -2.5206518188
 O        -7.9842505843        4.6296612741       -2.2670759702
 C        -9.1771508775        6.7425593060       -1.9120474177
 C       -10.6326300252        6.2935705232       -2.4505136565
 O       -11.1785128027        5.4126698249       -1.8809694709
 C       -11.4120339532        7.0495330055       -3.6249561952
 C       -12.3451551494        5.9984570998       -4.3881545499
 C       -11.4580324147        4.8473554735       -4.9409266644
 O       -10.3225849973        5.0727906986       -5.2167242813
 C       -11.9543741765        3.2851483237       -5.0612944184
 C       -10.8297964243        2.6870511130       -3.8695792368
 O       -11.0178788301        2.8834201025       -2.7310682683
 C        -9.6443612533        1.8391396995       -4.4962128272
 C        -8.2515664374        2.5429008016       -4.5790468912
 C        -7.1955012451        1.5486515227       -4.0483525136
 O        -7.5048610527        0.4010536255       -3.6803865980
 C        -5.7305666738        1.8873502261       -4.1794959101
 C        -5.3760920867        2.3275661881       -2.6097121481
 O        -5.0459576706        3.5130105470       -2.4531165685
 C        -5.1046623240        1.0977245419       -1.6739040857
 C        -5.6633394122        1.2347594259       -0.2985217389
 C        -7.1200300142        1.4720599431       -0.2638904391
 O        -7.6015545422        2.3899899548       -0.9043458596
 C        -8.0219168785        0.9230911333        0.9879051625
 C        -9.4841353979        0.8442656638        0.3903171750
 O        -9.6507827853        0.6891057931       -0.7802874033
 C       -10.5611209517        0.4061033654        1.4638554440
 C       -11.9596284477        0.6154108381        0.9434155349
 C       -12.4605690745        2.0242246399        1.0383388207
 O       -11.8073933346        2.9018859486        0.3875774387
 C       -13.6237721573        2.3938053106        1.8942790701
 C       -13.1428808885        2.2768654454        3.3659686158
 O       -12.3467923246        1.3603495545        3.7037470312
 C       -13.7633606495        3.1711734938        4.4388619111
 C       -12.8534079570        3.1978989513        5.7029214341
 C       -12.1577098807        4.6850281939        5.8661180945
 O       -12.2999230202        5.5432830692        4.9960524990
 C       -11.1443971064        4.9255920866        6.9801552192
 C       -11.8730933259        5.6270131558        8.2207597372
 O       -11.8222967942        5.1579616895        9.3166856268
 C       -12.6335883998        6.8719158511        7.7862051134
 C       -10.6552088694        3.5462037729        7.5211974639
 C       -10.1368402208        5.9086085669        6.4825220788
 C       -13.9269396744        3.8614350710        1.4597756264
 C       -14.8462078596        1.6114093053        1.8638065203
 C        -7.6023463910       -0.4734092975        1.5520659539
 C        -7.6427532349        1.8587568057        2.2191167733
 C        -5.0776468011        0.5766096833       -4.6884709352
 C        -5.5152288908        3.1335820993       -5.0191852474
 C       -13.4567151822        3.1721313813       -4.6990692307
 C       -11.7058142370        2.8242340377       -6.5089699110
 C        -9.3100673793        6.6038548370       -0.2533972195
 C        -9.0118332280        8.2697327120       -2.2653087962
 H        -6.0365008457        5.8757030395       -3.4944056343
 H        -6.6715417786        7.4945425917       -3.7409204855
 H        -7.3720693669        6.4802195061       -4.6577690904
 H       -10.7514475870        7.6776742466       -4.2449089372
 H       -12.1099717805        7.6520528172       -3.1354585557
 H       -12.9075774263        6.4222744104       -5.3277832120
 H       -13.1740513269        5.8601306170       -3.6653495445
 H        -9.8383437736        1.3817510357       -5.5313907280
 H        -9.3816342394        0.9645041891       -3.9230662401
 H        -8.2791160275        3.4560945807       -3.9969273336
 H        -8.0663315406        2.8424568400       -5.6373681703
 H        -3.9975629434        1.0785962519       -1.5733515277
 H        -5.1603018265        0.1461504206       -2.2534056301
 H        -5.2656489868        2.2093569721       -0.0294057083
 H        -5.2058762890        0.4032064665        0.2788471930
 H       -10.3794060222        0.9860865914        2.3064044647
 H       -10.2329288349       -0.5644759781        1.7702712451
 H       -12.6087657064       -0.1074549504        1.4828498839
 H       -12.0042476576        0.1884763480       -0.0788419559
 H       -14.6975784247        2.7134529162        4.7273809468
 H       -13.9586221799        4.1914685955        4.0356320819
 H       -11.9400074758        2.5575337007        5.6179939497
 H       -13.3466822850        2.8898579032        6.7263512375
 H       -12.2164847257        7.5229572190        6.9179741744
 H       -12.6835969031        7.4660861395        8.7190690281
 H       -13.6843423105        6.6578261611        7.6920264968
 H        -9.8431421031        3.6688891409        8.2448534226
 H       -10.1430443554        2.9242170116        6.7981833496
 H       -11.4226195923        2.9880808611        8.0444073427
 H        -9.1237433890        5.5780455143        6.2022566948
 H        -9.8629267588        6.6157449597        7.2705122799
 H       -10.4690522909        6.4689881295        5.6728718544
 H       -13.8095358898        4.1292677967        0.3448539527
 H       -13.1951980678        4.6073253865        1.7072727594
 H       -14.9098373825        4.2323441573        1.8193300025
 H       -15.6155507415        2.0627184727        1.2315758678
 H       -15.2316562439        1.3293962065        2.7608590996
 H       -14.5746596324        0.7012632633        1.2745208968
 H        -6.5624685090       -0.4970494348        1.5932435308
 H        -7.9290252446       -1.3102074580        0.9132862524
 H        -8.0842500548       -0.6056409788        2.4428214274
 H        -8.3792303971        1.5424721452        3.0555796987
 H        -7.6404115870        2.9712393680        1.9191024866
 H        -6.7607216893        1.3988254953        2.6038733645
 H        -4.1055729332        0.3322483320       -4.2898341190
 H        -4.9323309967        0.7897997458       -5.8023681356
 H        -5.6936969636       -0.3504254539       -4.4888546113
 H        -6.3889214367        3.6938937296       -5.1780388814
 H        -5.3109447558        2.9911235807       -6.0747386071
 H        -4.7977949324        3.7833516162       -4.5374818717
 H       -13.7514717798        2.2308283754       -4.3131387527
 H       -14.1349167355        3.5214565834       -5.5134029896
 H       -13.6442318569        3.7757056726       -3.8009733960
 H       -12.3066224728        3.1841965811       -7.3674396279
 H       -11.8999924273        1.7909103752       -6.3735388641
 H       -10.5981738269        2.8914760698       -6.8653734554
 H        -9.8340337900        5.6151788154       -0.1711106584
 H        -9.9410710084        7.3652442010        0.0783335411
 H        -8.2702673362        6.4477002563        0.2128620892
 H        -8.1697060425        8.7332500256       -1.7895220608
 H        -9.8337823785        8.8719692832       -2.0082501580
 H        -8.7210109057        8.3121476004       -3.3675127913
 Na       -9.9059627200        3.5052831443       -0.8510434926
