117

 C        -7.3632034112        6.3091107707       -3.7839430099
 C        -8.1969200778        5.9107430811       -2.7036872404
 O        -8.3226413207        4.7455382819       -2.3784462084
 C        -9.1109960986        6.9918058755       -1.9495696265
 C       -10.3514383126        6.2133803926       -2.4293420520
 O       -10.9634480566        5.4112961199       -1.6525637340
 C       -11.0085725880        6.5592429481       -3.6896711047
 C       -11.7386536001        5.3352363681       -4.3033412925
 C       -10.8881717884        4.5508751989       -5.3178218283
 O        -9.7584710630        4.9473240829       -5.6563995782
 C       -11.4622667203        3.0785565488       -5.5889754980
 C       -10.9949791079        2.3307254285       -4.3274219092
 O       -11.5268931319        2.5402976970       -3.2071405431
 C        -9.9888525497        1.1904924424       -4.3320202267
 C        -8.5236147072        1.8313945838       -4.5776153530
 C        -7.4382416070        0.7819605852       -4.0690001235
 O        -7.6491203604       -0.3467958710       -3.7392937627
 C        -5.9079612169        1.4625645732       -4.0864718362
 C        -5.5882518245        1.7874202595       -2.6367763990
 O        -5.2502189404        2.8299264066       -2.1570546108
 C        -5.5477663443        0.5436857337       -1.6338477372
 C        -5.7635622067        1.0833594963       -0.1287947357
 C        -7.1666710538        1.4984229320        0.1450581010
 O        -7.5425947651        2.4650785689       -0.5305663560
 C        -8.0365252621        0.8365089120        1.2316562909
 C        -9.4349513297        0.9919910029        0.7725115629
 O        -9.6810619215        0.9573887424       -0.4315479679
 C       -10.5617288118        0.8983047477        1.7816155264
 C       -11.9638280672        1.2184172274        1.3341763163
 C       -12.4073486065        2.7645630402        1.1829237084
 O       -11.7130541749        3.5247160507        0.5161349200
 C       -13.7352873907        3.1465744297        1.9431159412
 C       -13.3903459990        2.9665109298        3.4941832907
 O       -12.6234188521        2.1560928157        3.8159975261
 C       -13.9455778072        3.9750946463        4.4677258167
 C       -13.2485307254        3.8901460081        5.7869206120
 C       -12.1796498431        5.0709135586        6.0015642669
 O       -12.0764935022        5.9249043625        5.1657034077
 C       -11.2029719815        4.9963929368        7.1378403480
 C       -11.6908870323        5.7130030702        8.3882643421
 O       -11.4155051225        5.1431351886        9.4106593520
 C       -12.5156433346        7.0018489049        8.2533569390
 C       -10.7784853566        3.5604818884        7.5004195447
 C        -9.7905956627        5.7183206314        6.8736416884
 C       -14.3297814469        4.4088917432        1.4173679626
 C       -14.6726390879        1.9374655063        1.4054164023
 C        -7.6563123913       -0.6006511682        1.5602100128
 C        -7.7667008264        1.8294058434        2.4881216450
 C        -5.1254621200        0.5436051905       -5.0149102503
 C        -5.8783220487        2.8017927493       -4.8848698821
 C       -13.0272657108        3.1948315335       -5.6710984457
 C       -10.8280506529        2.2680181226       -6.8118716920
 C        -9.1138296803        7.1171582655       -0.4124467825
 C        -8.8676323484        8.4333096999       -2.4341365195
 H        -6.7757316160        7.1590476380       -3.4787326787
 H        -7.9974170983        6.5782204714       -4.6974462689
 H        -6.6041954862        5.5794066866       -4.2861692797
 H       -10.2475516994        7.0373306369       -4.3047712947
 H       -11.6587254385        7.3585932979       -3.3843403644
 H       -12.5396061428        5.8837112898       -4.8598279776
 H       -12.2061326723        4.6116469321       -3.4938741407
 H       -10.1046873432        0.4777502113       -5.1096068872
 H        -9.9751689720        0.7397284688       -3.2770709892
 H        -8.5852822457        2.8048491579       -3.9775001129
 H        -8.4471879374        2.1638510808       -5.5792160847
 H        -4.4732323371        0.2942559804       -1.9187717055
 H        -6.1966110456       -0.2677999452       -2.0313760239
 H        -5.1756760098        2.0473972315       -0.3237509078
 H        -5.2326824133        0.4668695613        0.5786142318
 H       -10.4050279536        1.2927834300        2.8188438543
 H       -10.5836861803       -0.1722566310        1.8340072723
 H       -12.4814536595        0.5881363200        2.0319370620
 H       -12.0538471011        0.8040461109        0.3110605427
 H       -15.0493549218        3.8031457357        4.6314673872
 H       -13.8912126116        4.9886859601        4.0830524242
 H       -12.5469336150        3.0252199019        5.6695957209
 H       -13.8503206335        3.7802840490        6.7405715707
 H       -12.1822022505        7.6796306214        7.6101717583
 H       -12.5014446551        7.5142401600        9.2218433723
 H       -13.5951401174        6.6562793507        8.1602829447
 H       -10.8150403695        3.0871397382        6.5079619194
 H       -11.5233073360        3.0125691237        8.0580688726
 H        -9.9165527106        3.3621288420        8.1404817632
 H        -9.5488739314        5.9969741521        5.8671949329
 H        -8.9447645643        5.1533658981        7.1311480812
 H        -9.6919316113        6.6647356906        7.4612774068
 H       -14.9472028466        4.3202236684        0.6057551075
 H       -13.6258681562        5.2791425058        1.2472520362
 H       -15.0031388573        4.8796801269        2.1752120633
 H       -14.4917635727        1.6626420718        0.4172043881
 H       -15.6777935487        2.4644206023        1.3943703820
 H       -14.7963437361        1.0384602904        1.9080010420
 H        -7.1109046681       -0.7461988048        2.4865207548
 H        -7.1434098886       -0.8971113895        0.7638222499
 H        -8.3991125930       -1.3467743176        1.6860213486
 H        -8.2854833744        1.3171475949        3.3442226178
 H        -8.0933270212        2.8288235939        2.2416781535
 H        -6.6155679134        1.8893782939        2.5027885951
 H        -4.0291531518        0.5852173222       -4.8250669252
 H        -4.9869473450        0.9076806716       -6.0475843932
 H        -5.5038952067       -0.4797915496       -4.8795046590
 H        -6.6738758074        3.4856713387       -4.5037589158
 H        -6.2194565330        2.7407265548       -5.8889974458
 H        -4.8575833401        3.1326515569       -4.8694697877
 H       -13.4003188650        2.6480403542       -6.5537221478
 H       -13.5322572159        4.0761118399       -5.9653889613
 H       -13.4919816867        2.8103301205       -4.8080351659
 H       -10.9471372052        2.6454170794       -7.8592798899
 H       -10.9918999100        1.1459625072       -6.7286614672
 H        -9.7861793630        2.3063494202       -6.7411792163
 H        -8.6457803229        6.2571593296        0.0959167796
 H       -10.1564764946        7.4543387570       -0.0510582448
 H        -8.6120881631        8.0474250221       -0.1779959923
 H        -8.0244681608        8.7999600376       -1.8555471265
 H        -9.6686873705        9.1537123039       -2.0711128744
 H        -8.7639126257        8.5322035882       -3.4520084646
 Na      -10.1273979353        3.1798031494       -1.3418270827
