117

 C       -13.2024593014       -0.1862899156       -9.3982456609
 C       -12.0599746862       -1.0507769336       -9.1445945586
 O       -12.1816504514       -2.2088354703       -9.3154239434
 C       -10.7556599863       -0.4708726103       -8.6872567365
 C       -10.8812613492       -0.0576010786       -7.1777676993
 O       -11.3307890578        1.0663832600       -6.9907378344
 C       -10.3841213057       -1.0119723154       -6.0331194579
 C        -9.9705294504       -0.2283326840       -4.7528245091
 C       -10.7135188339       -0.5905842685       -3.5437052210
 O       -11.8196902296       -1.0159731707       -3.6131327317
 C       -10.2647525475       -0.0239364492       -2.0903758268
 C       -10.9387010598        1.4178618203       -2.0212196935
 O       -10.3616847131        2.3744237974       -2.4504336502
 C       -12.3076665864        1.3735822398       -1.4531357692
 C       -12.9192447452        2.8155160009       -1.2301398160
 C       -11.9666387512        3.8865489429       -0.5972843426
 O       -11.0881427567        3.5740198562        0.1576321098
 C       -12.0998353345        5.5002401769       -0.9736725188
 C       -12.2816284376        6.2078716658        0.4493807703
 O       -11.4323709813        5.9950346715        1.3165350156
 C       -13.5076798102        6.9516720368        0.9850635440
 C       -13.3239658911        7.2461661990        2.5414311581
 C       -11.9248442565        7.9155016477        2.8552674750
 O       -11.6590404342        8.9254315045        2.2421474545
 C       -10.9598879247        7.2915605790        4.1190700129
 C        -9.4766432794        7.6531783236        3.6317795589
 O        -8.8484385180        6.9221456535        2.8890913382
 C        -8.7670050005        8.9403352039        4.1580512495
 C        -7.2509707536        8.6688610416        3.9905362813
 C        -6.7975851617        7.5693329543        4.9275006988
 O        -7.5437966156        7.2096846426        5.8160549566
 C        -5.4478756591        6.8082938399        4.5649133084
 C        -5.9825372785        5.2675364088        4.3970669328
 O        -5.6071372300        4.5341042737        3.5489304185
 C        -7.0089446901        4.6421192063        5.3323072728
 C        -7.1598456767        3.1538442980        4.9702753661
 C        -8.1269113427        2.9832157363        3.8089239660
 O        -9.2158632650        3.5916749470        3.7231630079
 C        -7.8982561456        1.8306456878        2.7825680028
 C        -7.1193406330        2.5994900945        1.6757878149
 O        -7.7676958601        3.3704795768        0.9640701129
 C        -5.6912812330        2.2961563528        1.3150248167
 C        -7.0445273099        0.7660148209        3.4888492051
 C        -9.1689677262        1.2950760560        2.2340679780
 C        -4.7694538295        7.3050797796        3.2816468247
 C        -4.4732050781        6.8286809152        5.7444174468
 C       -11.4799441450        8.0887480361        5.3309437758
 C       -11.2588408801        5.7822385314        4.1871009486
 C       -10.7235150718        6.0138403991       -1.4536653918
 C       -13.1488588724        5.7724858025       -2.0748097517
 C       -10.7783546488       -0.9746932627       -1.0141231714
 C        -8.7152312457        0.0917459001       -1.9594130214
 C        -9.6416759424       -1.4508109051       -9.1017445203
 C       -10.4774686299        0.7828450036       -9.5639342589
 H       -14.0760360218       -0.7646847091       -9.1267710987
 H       -13.2829462610        0.2201300450      -10.4220871575
 H       -13.4708499062        0.8352705595       -8.8839726392
 H        -9.4603918183       -1.4506367462       -6.5191304244
 H       -11.0917999993       -1.8534800388       -5.8503980153
 H       -10.3548121241        0.8124909682       -5.0379157384
 H        -8.9118650062       -0.2843795130       -4.6946152100
 H       -12.2215169161        0.8698827518       -0.4653074625
 H       -12.9919741989        0.7167149006       -2.0180956741
 H       -13.8375165853        2.7896082921       -0.5442981109
 H       -13.2930457235        3.2690918872       -2.1697818874
 H       -14.4491798705        6.5104059355        0.7159154914
 H       -13.6016668887        7.9275918200        0.3966308193
 H       -13.4216604451        6.2120051966        2.9709557925
 H       -14.1414238408        7.8425344597        2.9472508972
 H        -8.9973641874        9.0733878513        5.2483085516
 H        -9.1770250789        9.8587052545        3.6155069220
 H        -6.7649372712        9.6611831180        4.1320139620
 H        -7.1357916316        8.2721993149        2.9345998711
 H        -8.0322394636        5.1733437612        5.2475879589
 H        -6.8075244744        4.7506496067        6.4367186554
 H        -7.5065900737        2.6614857945        5.8769663319
 H        -6.2854225417        2.6932818848        4.6024482365
 H        -5.4693798067        1.2303162952        0.9837104147
 H        -5.0373893518        2.5590202680        2.1335230112
 H        -5.5554153318        2.9667996617        0.4112044114
 H        -7.6000587825        0.4235056516        4.3255272002
 H        -6.0412851258        1.0929146111        3.7515239229
 H        -7.0039330354       -0.1703111248        2.7909458758
 H        -9.8239437935        2.0431412991        2.0158269185
 H        -9.6914256260        0.6989265036        2.9894276581
 H        -8.9028373359        0.8346892967        1.2874183252
 H        -4.8923204366        8.4175330359        3.2095080688
 H        -5.1974242942        6.8597039886        2.3349024989
 H        -3.7383870975        7.0808073565        3.3203563770
 H        -3.8973204033        5.8645471462        5.6710064702
 H        -5.1057449433        6.8173097947        6.7274028515
 H        -3.7581546829        7.7022581907        5.5984621952
 H       -12.5454463709        7.7996909030        5.3579470229
 H       -11.4901013759        9.1710213075        5.0666051752
 H       -10.9386326889        7.8902383774        6.2726065058
 H       -11.0039901320        5.2709080501        3.2594381680
 H       -12.2750535650        5.7095990195        4.4373961618
 H       -10.7527186481        5.2860223757        5.0241085479
 H       -10.2633942371        6.7907192245       -0.8661602074
 H       -10.7693059921        6.4262880887       -2.4060150909
 H        -9.8434188804        5.2562723827       -1.4159715149
 H       -12.8609268121        5.1937862888       -2.9260981854
 H       -13.2228408955        6.6991339570       -2.5804213276
 H       -14.1952429311        5.5556581006       -1.7693450507
 H       -10.1446125837       -1.8665259078       -1.0837902204
 H       -11.7897775676       -1.2222680575       -1.1886692285
 H       -10.6591094878       -0.4797578390       -0.0740844003
 H        -8.2383527395       -0.8673657816       -2.0627168175
 H        -8.5576514518        0.2352308101       -0.8844912212
 H        -8.2290753392        0.7897338459       -2.6479511932
 H        -9.9387117444       -2.4720442492       -9.0662325434
 H        -8.7462726045       -1.2753336882       -8.4484446376
 H        -9.3317057178       -1.1914851451      -10.0926286944
 H       -10.7313919640        1.6349830362       -8.9654780734
 H       -10.9645039171        0.7095215398      -10.5719435279
 H        -9.3657585159        0.7907556575       -9.8027062799
 Na       -9.4874195530        4.8734902275        1.6315750437
