117

 C        -7.1013190897        6.4336693441       -3.7250492341
 C        -8.1608614492        5.9181693297       -2.7476821801
 O        -8.1586186902        4.7163317179       -2.4380257047
 C        -9.1254587309        6.9269952079       -2.0967751321
 C       -10.5152447928        6.2775213641       -2.3849585392
 O       -11.1551811747        5.6074820951       -1.6637599697
 C       -11.0097789214        6.4359647713       -3.8891744852
 C       -11.6984542044        5.1751016160       -4.4432520004
 C       -10.7095450188        4.3947583004       -5.2846510141
 O        -9.7196416365        4.7405266543       -5.8087365460
 C       -11.2310347514        2.9365449974       -5.6776150012
 C       -11.1185797347        2.1282816270       -4.3808879214
 O       -11.6646943217        2.5476891522       -3.3842105199
 C       -10.1425691627        0.9166287572       -4.2193405533
 C        -8.7906374025        1.6621781410       -4.1985334007
 C        -7.5470984363        0.7751909722       -4.1639322343
 O        -7.6025647482       -0.4356109031       -4.1229919191
 C        -5.9439051170        1.2741770092       -4.0669701453
 C        -5.5331999030        1.5013898829       -2.6492489450
 O        -5.0441194335        2.5871008728       -2.4166807596
 C        -5.6352285721        0.4286908907       -1.4643158303
 C        -5.8028913820        1.1719280374       -0.1080845323
 C        -7.2755034251        1.7100874346        0.1979335086
 O        -7.7808158650        2.4990587339       -0.5863580216
 C        -8.0295948218        1.0281748067        1.3526494756
 C        -9.5801337685        1.0344131573        0.9554777752
 O        -9.9149391373        0.7168034957       -0.1871862559
 C       -10.6170581247        1.1526138675        1.9854626696
 C       -12.0348208595        1.2971428435        1.2037483980
 C       -12.4089042605        2.7085096730        1.0607242856
 O       -11.5496040980        3.5890790851        0.7517369320
 C       -13.6900830910        3.2461810496        1.8706433774
 C       -13.3588958368        3.2763767618        3.4019815459
 O       -12.7449039896        2.2875433436        3.8648624055
 C       -14.0014207879        4.3137986477        4.3475311175
 C       -13.3510180521        4.3010141354        5.7285465251
 C       -12.1103254906        5.2030498884        5.9061983644
 O       -11.9304951793        6.1031417882        5.0784162353
 C       -11.1748297941        5.0511155127        7.1258037889
 C       -11.6553676582        5.6857450021        8.5852916319
 O       -11.4342540433        5.1720749136        9.6627458964
 C       -12.3446902580        6.9764275802        8.4996838720
 C       -10.9948676146        3.3741296668        7.3917336026
 C        -9.7984141595        5.7120286435        6.8030416391
 C       -13.9913670820        4.7539199342        1.3894571130
 C       -14.9674078376        2.4324790599        1.7816434534
 C        -7.6431304508       -0.4893406204        1.4210981691
 C        -7.6365839667        1.6917277468        2.6576039555
 C        -5.0308816403        0.0693417204       -4.7060042504
 C        -5.9264745720        2.6722629174       -4.7236825550
 C       -12.7809708864        2.9601404514       -6.1028069071
 C       -10.6062282192        2.4584648520       -6.9808556983
 C        -8.8837221625        6.7891424016       -0.5625146366
 C        -9.0685223134        8.4125256081       -2.5966521305
 H        -6.8704587571        7.4516293945       -3.8755239735
 H        -7.2202450434        6.0374091518       -4.7052599558
 H        -6.1527874336        6.0750688258       -3.3797739448
 H       -10.1877988854        6.9201613884       -4.4429036175
 H       -11.8371140752        7.1809025987       -3.7926122004
 H       -12.5494852792        5.5416183350       -5.0212182843
 H       -12.0132395845        4.6545844623       -3.5977066339
 H       -10.1903827576        0.2536252049       -5.1236671858
 H       -10.2073205478        0.4470248473       -3.2813684054
 H        -8.9255894942        2.1862920699       -3.2906012898
 H        -8.7570619867        2.4933141941       -4.9772535172
 H        -4.6526115164        0.0430958433       -1.5593429860
 H        -6.4409530414       -0.2352795372       -1.7226538612
 H        -5.1056069403        1.9705711339       -0.1996416343
 H        -5.4924658407        0.4071917064        0.6310331277
 H       -10.4211953992        2.0271428219        2.6029373799
 H       -10.5752157327        0.1824473247        2.6232475001
 H       -12.7054828157        0.7712176283        1.8861037446
 H       -11.9467320217        0.7848636518        0.2566317797
 H       -15.0376421614        4.1294788835        4.4819022433
 H       -13.9584398779        5.3671352677        3.9901995085
 H       -13.1793929468        3.3320052107        6.1008846043
 H       -13.9815307736        4.8478783561        6.4011759368
 H       -11.6226610264        7.8013477670        8.1881247278
 H       -12.6338155839        7.3942339287        9.5244446850
 H       -13.1775293639        6.9075597846        7.8669899622
 H       -10.8324818200        2.7371947584        6.5571124932
 H       -11.8995508688        3.0180620908        7.9054356658
 H       -10.2006800752        3.2400426252        8.1176297069
 H        -9.9047577266        6.1857724848        5.7812404129
 H        -8.8060050074        5.1606070626        6.7419529053
 H        -9.6231221014        6.5901442822        7.3961517044
 H       -13.9588716297        4.7475609509        0.2871795206
 H       -13.4506957270        5.5148962075        1.9535490190
 H       -14.9612692724        5.0525302308        1.5027037700
 H       -15.4225480956        2.3914024044        0.7520193714
 H       -15.7115438282        2.6150181759        2.4881326673
 H       -14.6768258168        1.3364369397        1.9309161766
 H        -6.6757891519       -0.7097988962        1.8879575324
 H        -7.8761238823       -1.1405192768        0.4267755097
 H        -8.2111088909       -1.0066306850        2.2266394494
 H        -8.3641038153        1.4244256862        3.3573616791
 H        -7.5112570550        2.7647917759        2.3990180568
 H        -6.7074545313        1.4063172270        2.8167247556
 H        -3.9892497652        0.1026087691       -4.5243825329
 H        -5.0853180366        0.2063582190       -5.8083846444
 H        -5.4754619166       -0.9100817268       -4.5832245653
 H        -6.7816771870        3.2212447670       -4.3247224769
 H        -6.1658984539        2.5407629199       -5.8412891983
 H        -4.9340533648        3.1489797495       -4.6205526452
 H       -13.1743145831        2.0008800146       -6.3413530669
 H       -13.1225134472        3.4649493838       -7.0316519326
 H       -13.3868248757        3.4822595037       -5.3316146357
 H       -10.8922676258        2.9538382438       -7.9141459029
 H       -10.9795327446        1.4817941363       -7.0880431693
 H        -9.4896964576        2.3161094057       -7.0519530950
 H        -9.2378329475        5.7677439971       -0.3045371461
 H        -9.2724461315        7.5329370766       -0.0030327819
 H        -7.7882629929        6.8245387644       -0.3599968564
 H        -8.0550095803        8.8194410218       -2.3738451099
 H        -9.8308131566        9.0240879659       -2.1185781102
 H        -9.2912353302        8.4540240812       -3.7240504505
 Na      -10.1189548262        3.2939186550       -1.1649756847
