117

 C        -6.8225015848        6.2757862507       -3.4074148567
 C        -8.1352473975        5.6905141740       -2.8342659103
 O        -8.3852638058        4.4990934517       -2.8211797866
 C        -9.1676217657        6.6679225800       -2.1741668560
 C       -10.5029679012        6.1033101795       -2.6515564530
 O       -11.1205215594        5.3577964811       -1.9677959312
 C       -10.9652225399        6.4823148616       -4.0313861949
 C       -11.8588930601        5.4051805573       -4.7054383814
 C       -10.8300851399        4.3902136458       -5.4145198763
 O        -9.7187854364        4.7578448407       -5.4933764077
 C       -11.1614492696        2.8675729852       -5.7755734254
 C       -10.9495026113        2.1048275489       -4.3023213263
 O       -11.6355141977        2.4712548268       -3.3821492679
 C        -9.8976070861        0.9978444319       -4.2642803711
 C        -8.6593193442        1.3746618400       -3.4823168539
 C        -7.4407723186        0.5110084798       -3.9917854034
 O        -7.5969109795       -0.6800313726       -4.4032367199
 C        -5.8724039244        0.9101978024       -4.1206913485
 C        -5.4988955487        1.5077229283       -2.7378291883
 O        -4.7525976764        2.4319512613       -2.5825465778
 C        -5.9161241165        0.6418740165       -1.4495201495
 C        -5.9587863172        1.3229385572        0.0166675618
 C        -7.4372239628        1.5349465304        0.1660380374
 O        -7.8808113824        2.5020255233       -0.4172943450
 C        -8.2850621714        0.8432590483        1.2959392306
 C        -9.7644157250        1.1155374118        0.9250727506
 O       -10.0842222435        0.9637602496       -0.2613846057
 C       -10.7107766223        1.1469950578        2.1619717660
 C       -12.1005267450        1.4883921628        1.7206663557
 C       -12.3320736361        2.9547318556        1.3153911992
 O       -11.8253020039        3.3808595085        0.3583029076
 C       -13.5387665579        3.7869157751        1.9830531711
 C       -13.4333417591        3.8351746226        3.5473303299
 O       -12.8695283438        2.8454059926        4.1671913445
 C       -14.0982401984        4.9726143715        4.4660813341
 C       -13.5153593631        4.8980409087        5.8645929330
 C       -12.0636565192        5.4814346056        5.9775374114
 O       -11.7446203884        6.3500379063        5.1727211942
 C       -11.0724559345        4.8984891539        7.1146493399
 C       -11.6508172987        5.6159336009        8.4680119382
 O       -11.6570473892        4.9818559522        9.4886575238
 C       -12.1194573393        7.0719987587        8.4718436656
 C       -11.1200753031        3.3895547407        7.2548123276
 C        -9.6484660307        5.5998029873        6.9878805808
 C       -13.6464957000        5.2731932515        1.5289058925
 C       -14.9772714641        3.1135544378        1.6167611745
 C        -7.8673614385       -0.6275353219        1.4020263199
 C        -7.8661778536        1.6507763943        2.6663939757
 C        -4.9241947049       -0.2867925284       -4.4503082026
 C        -5.8838046908        1.9645298206       -5.2677483483
 C       -12.6548395179        2.4404253044       -6.2610863641
 C       -10.3266319215        2.1247505569       -6.8555901671
 C        -9.0283483181        6.5394074730       -0.6736175894
 C        -8.9577474910        8.1430066904       -2.7045906738
 H        -6.7616810962        7.0760874055       -4.2102853945
 H        -6.2749176837        5.5765602816       -4.0619826345
 H        -6.1291331278        6.6669083321       -2.6408085367
 H       -10.2270913988        6.8814382152       -4.6304218622
 H       -11.5254681238        7.3561187755       -3.6242285865
 H       -12.4616262810        5.9482514405       -5.4922769093
 H       -12.4123893785        4.8376243267       -3.8652504858
 H        -9.5286289666        0.6649272735       -5.2630856634
 H       -10.3824763681        0.1873641843       -3.7218935319
 H        -8.7030765012        1.1159649125       -2.4224620014
 H        -8.4895381809        2.5340021832       -3.5633971434
 H        -5.1413204742       -0.1348152730       -1.3868414703
 H        -6.9479233066        0.3360880715       -1.7059635206
 H        -5.5506391160        2.3345244007        0.2166253991
 H        -5.3779052704        0.5558543159        0.6352791985
 H       -10.3827201076        1.9758606801        2.8143191810
 H       -10.4929267474        0.1491713180        2.6859778708
 H       -12.7036330585        1.1911892297        2.5632448514
 H       -12.1854144155        0.8104940378        0.8750907748
 H       -15.1939670667        4.9247736734        4.6566126640
 H       -14.0161418716        5.9853977698        4.0785812288
 H       -13.7025031704        3.8737521054        6.3218081832
 H       -14.1263908029        5.6083282480        6.4282830775
 H       -11.3393370837        7.8471610594        8.6318481445
 H       -12.7979762095        7.2084506500        9.2606767380
 H       -12.5650860803        7.1639535025        7.6077086850
 H       -10.4747487518        2.9700735987        6.4703489127
 H       -12.1616938491        3.0129651578        7.1132149167
 H       -10.5864438711        3.0692513144        8.1618275728
 H        -9.2920255467        5.9911970183        6.0941269143
 H        -8.9234100609        4.8172247718        7.2603477798
 H        -9.4327409107        6.3038283556        7.7455402663
 H       -14.2371347558        5.3197773555        0.5689339182
 H       -12.6655193168        5.6871492793        1.5363073042
 H       -14.1786408808        5.8710518090        2.1174286934
 H       -15.1314693835        3.0496485374        0.5379192963
 H       -15.7655481612        3.6531839045        1.9844179139
 H       -15.1424757566        2.0969172071        1.9815869932
 H        -6.8485261853       -0.7709774898        1.2446591122
 H        -8.3508744318       -1.3910049572        0.6468155716
 H        -8.1261131022       -1.0681817684        2.3108180529
 H        -8.2286200791        0.9330915162        3.4152570581
 H        -8.4502388188        2.6334153233        2.6240285331
 H        -6.8406325620        1.8040871070        2.6156258773
 H        -3.9878550204        0.1817656472       -4.8580770770
 H        -5.2235112036       -1.1665025620       -4.9905728608
 H        -4.4935686821       -0.7077431319       -3.5004437603
 H        -5.9302681746        2.8843168420       -4.7932867556
 H        -6.8596354707        1.7031733304       -5.7635490462
 H        -5.0984395171        1.9526202993       -6.0566307947
 H       -12.8033194100        1.3954011195       -6.0851559947
 H       -12.9593639065        2.5622640551       -7.2887938999
 H       -13.5034918825        2.9547683647       -5.7972664252
 H       -10.7375138950        2.5420383045       -7.7108320163
 H       -10.6008327486        1.1364071086       -7.1303925358
 H        -9.1992455976        2.1616802026       -6.9410709065
 H        -9.2886760911        5.4993989285       -0.3473673813
 H        -9.8276095357        7.0827639928       -0.2552859489
 H        -8.0323090289        6.8687982382       -0.2259939873
 H        -7.9556647615        8.5918248311       -2.6613309172
 H        -9.7724310929        8.6172281678       -2.3019544158
 H        -9.1538618964        8.2735677661       -3.8242655009
 Na       -9.9958541648        3.5259067255       -1.1606795432
