117

 C        -6.6819363769        5.7992605231       -3.1913103096
 C        -8.1737005113        5.3799961314       -2.7853064171
 O        -8.4869743423        4.2288341504       -2.6322459060
 C        -9.1714238961        6.4645116648       -2.4361209113
 C       -10.6799093547        5.9725469097       -2.9944924829
 O       -11.2145229061        5.1174265983       -2.3318667413
 C       -11.3182786933        6.5224607501       -4.2915622874
 C       -11.8783459624        5.2834181978       -4.9931178586
 C       -10.5756292397        4.3003200006       -5.3972979380
 O        -9.5328818851        4.8599839194       -5.4998542149
 C       -10.8710859672        2.7419921912       -5.5409024547
 C       -10.6840476237        1.9969594621       -4.1201846741
 O       -11.0087360550        2.6547608556       -3.1803328323
 C        -9.8354738664        0.7672534496       -4.0428194932
 C        -8.3552759086        1.1608346435       -3.6147632983
 C        -7.3570032198        0.1289435998       -4.0814570275
 O        -7.7851008377       -1.0254304491       -4.4259301810
 C        -5.8922585973        0.5368948312       -4.1617392568
 C        -5.5805628077        1.2505140752       -2.7852021010
 O        -5.1451321507        2.3384311316       -2.8290707701
 C        -5.5828650087        0.4536532009       -1.1799659315
 C        -6.1047427698        1.3449837790        0.0327830132
 C        -7.5831915700        1.8318245260        0.1632650350
 O        -8.0094040675        2.8365470479       -0.3325074946
 C        -8.4790959008        1.0678823791        1.2051660011
 C        -9.9733149451        1.2441158629        1.0915981645
 O       -10.4264464745        1.3349734525       -0.0442667366
 C       -10.9517646627        1.1760513779        2.2442146037
 C       -12.2891922458        1.7239519401        1.7705432873
 C       -12.4611281362        3.2027090398        1.4027739372
 O       -11.7887354759        3.5268890377        0.5233507015
 C       -13.5244598697        4.2072488917        2.1031060133
 C       -13.3144015666        4.2473691802        3.6274437398
 O       -12.7031130859        3.2955913339        4.1965652444
 C       -13.9906848500        5.4318893116        4.4955536780
 C       -13.5008919704        5.5769710704        5.9238091442
 C       -11.9487407340        5.7692081909        5.9709783121
 O       -11.4962704356        6.4373136496        5.0777320830
 C       -11.1031479708        5.0336874948        7.0513543855
 C       -11.7060928283        5.5540433640        8.4799589311
 O       -12.1465394447        4.7432045880        9.2780397424
 C       -11.8293352774        7.0788630493        8.7465659913
 C       -11.2965761183        3.4515103953        7.0356378077
 C        -9.5566757948        5.4538711978        7.0673448604
 C       -13.2080649149        5.5886441408        1.4874833521
 C       -14.9628640905        3.8100288442        1.7536934322
 C        -8.2174769923       -0.4938937450        1.0568298843
 C        -7.8789666730        1.5197880719        2.6136680895
 C        -4.9703569117       -0.6354273547       -4.3254080881
 C        -5.6668882355        1.5582452148       -5.2380866850
 C       -12.4695370155        2.5465271934       -5.7536956965
 C       -10.1243437705        2.1830364131       -6.8305822602
 C        -9.3786313106        6.3976278713       -0.9005084014
 C        -8.9016193893        7.8946945541       -2.8653311421
 H        -6.4665526609        5.5489108861       -4.2848378180
 H        -5.8782175663        5.1275594641       -2.9299370458
 H        -6.3425382718        6.8024553591       -3.0538081294
 H       -10.6161998812        7.1767672393       -4.7890823846
 H       -12.2016345158        7.2105433474       -4.0936024614
 H       -12.4410006393        5.6477538884       -5.7986348131
 H       -12.4659799515        4.7976305731       -4.1905527396
 H        -9.8734724880        0.1227397945       -4.8954223532
 H       -10.1172035679        0.1724718330       -3.1720217623
 H        -8.3576223937        1.2130177455       -2.5455870598
 H        -7.9930273600        2.1113044014       -3.9738841452
 H        -4.4840012219        0.4421394066       -1.1309281383
 H        -5.9814852167       -0.5576779976       -1.2703909536
 H        -5.5420214680        2.2608723036       -0.1516058318
 H        -5.7153596867        1.0893417807        1.0334654632
 H       -10.6374596927        1.7200550630        3.0835082817
 H       -11.0244536440        0.1768850958        2.4939242059
 H       -12.8756665496        1.3360687467        2.5949251023
 H       -12.4213067318        1.1684696832        0.7943837642
 H       -15.1039878894        5.2614541288        4.3629438439
 H       -13.8709581375        6.3735411528        4.0195189004
 H       -13.8465511204        4.7250454918        6.6285556264
 H       -13.8318129951        6.5396083081        6.3864393192
 H       -10.7805631484        7.6334731242        8.9724106192
 H       -12.5498936257        7.1458442013        9.6374008028
 H       -12.1945650330        7.5179937254        7.8499535574
 H       -11.1024032493        3.0251874784        6.0673823325
 H       -12.2497155271        3.2718862891        7.5366194175
 H       -10.4902164399        3.0851533092        7.6439060218
 H        -8.8975228490        4.7934457775        6.5266586501
 H        -9.1430931626        5.4992190688        8.1127644823
 H        -9.2973461468        6.4759889593        6.6462081233
 H       -13.0372191332        5.3974865964        0.2827039166
 H       -12.2353293225        6.1122547959        1.8191508446
 H       -14.1341586596        6.1618223315        1.7022437299
 H       -15.2009401370        3.6439416615        0.6774315866
 H       -15.6851607534        4.5861387550        2.0238728535
 H       -15.3217979777        2.8918604748        2.2628324798
 H        -7.3057840391       -0.7009979829        1.4544514716
 H        -8.0017290745       -0.8900432944        0.0265153852
 H        -8.9516544736       -1.1429759314        1.4031187424
 H        -8.5308821466        1.1366117490        3.4418625489
 H        -7.9704517280        2.6219601715        2.4530897551
 H        -6.9474620668        0.9665997846        2.6561557598
 H        -3.9152246752       -0.4820721608       -3.9437745667
 H        -5.0762230153       -0.9697643904       -5.3142182536
 H        -5.2288736085       -1.5168733841       -3.7545964407
 H        -6.1710058303        2.3917213231       -4.8801480130
 H        -5.8801874289        1.0797629187       -6.1891619942
 H        -4.6197042177        1.9803015547       -5.3045160841
 H       -12.7526875344        1.5401926389       -6.1844671897
 H       -12.9474359166        3.3636002776       -6.2768059697
 H       -13.1311551823        2.4215626227       -4.8662074135
 H       -10.4483033468        2.5052526472       -7.8019708888
 H       -10.2155576313        1.0333130931       -6.8294060712
 H        -9.0116642363        2.3100792945       -6.9211457713
 H        -9.0236315498        5.5459286929       -0.3259719539
 H       -10.3951991970        6.4638842340       -0.5201869978
 H        -8.7252109557        7.1978819014       -0.5178428458
 H        -7.9909922276        8.3211652590       -2.4859028356
 H        -9.8039515469        8.4469837380       -2.8242054371
 H        -8.5077737910        7.8625431476       -3.8714820676
 Na      -10.1595295820        3.0290899956       -1.3903259382
