117

 C        -7.0301347064        5.1380066930       -3.3015495106
 C        -8.3859243866        5.0247535886       -2.8568661979
 O        -8.8882872874        3.9413140305       -2.5885405485
 C        -9.2974388575        6.3326734102       -2.5892045999
 C       -10.6181893252        5.9802429436       -3.0861535278
 O       -11.3873312339        5.2779637414       -2.4514548627
 C       -11.1769108380        6.4127966118       -4.5298613557
 C       -11.6713559955        5.1172717708       -5.1983632677
 C       -10.5629722595        4.1449458014       -5.4835522294
 O        -9.3939845550        4.3271968810       -5.2801840170
 C       -10.8913779266        2.4270587967       -5.8245115085
 C       -10.6244750843        1.7984301251       -4.3769414386
 O       -11.2288368682        2.2709050203       -3.3805681701
 C        -9.7435442452        0.5091868161       -4.3136495617
 C        -8.2362934663        0.9852484151       -4.2737078566
 C        -7.3470108192       -0.2060720085       -4.0170525203
 O        -7.7628120405       -1.2495344757       -4.2043026434
 C        -5.7080300508        0.1203294243       -3.6673846830
 C        -5.8501899865        1.1186073543       -2.5087351858
 O        -5.7160370578        2.3115764034       -2.5780062774
 C        -6.2676924476        0.5283443064       -1.2515285409
 C        -6.4175658039        1.3497371300       -0.0356187120
 C        -7.8232107673        1.6114735264        0.2997393886
 O        -8.3231756470        2.7045807746        0.0722183339
 C        -8.6789607735        0.5951202166        1.2513559599
 C       -10.1451177409        1.0988912039        1.0457504411
 O       -10.5753666724        1.0984877622       -0.1340514121
 C       -10.9733423258        1.8440177743        2.1762600936
 C       -12.2255802446        2.5740868320        1.6753752888
 C       -12.1065176394        4.0872042258        1.4292954014
 O       -11.1570306434        4.5482247538        0.7813858906
 C       -13.3290141110        4.9360300527        1.9613400583
 C       -13.1635421665        5.0518374992        3.5630496363
 O       -12.6562103798        4.1596010153        4.1704987521
 C       -13.7035980346        6.1350654668        4.4516853437
 C       -13.1509686279        6.0178425501        5.8947521367
 C       -11.6398475413        5.9432537253        5.9587953565
 O       -10.8845011448        6.4605327325        5.1479171224
 C       -10.9073549054        5.0772507816        7.3413085576
 C       -11.8519243867        5.5793620745        8.5663013350
 O       -12.9868366908        5.1474751944        8.5782188521
 C       -11.2490727022        6.5657361397        9.5170263724
 C       -11.1112405427        3.5483694995        7.1969449070
 C        -9.3623249197        5.6198783691        7.4747631420
 C       -13.3875948003        6.3393421037        1.1989035383
 C       -14.6734813386        4.2612377042        1.4909953465
 C        -8.4552056076       -0.8249677989        0.9102644206
 C        -8.0687804076        1.1065779424        2.6689978949
 C        -5.0835776503       -1.2817941659       -3.3664457299
 C        -4.7645323219        0.6702406523       -4.7184066931
 C       -12.3520710519        2.2555113864       -6.2344702768
 C        -9.9640231022        1.8003757029       -6.9097520522
 C        -9.3970833524        6.5412639613       -1.0545717480
 C        -8.7421682255        7.5471477704       -3.3344935101
 H        -6.9162058985        5.3375426822       -4.3462727158
 H        -6.4347530711        4.1660494593       -3.2724943217
 H        -6.3059730621        5.8872775297       -2.8690388656
 H       -10.4512802239        6.9338363051       -5.1695254645
 H       -11.9313310022        7.2079057630       -4.3640256934
 H       -12.2362647933        5.3164748827       -6.1421394321
 H       -12.2574698790        4.4055966340       -4.6113687305
 H        -9.8689348098       -0.2967250860       -5.0535995500
 H       -10.0493288528       -0.0150012529       -3.4356271932
 H        -8.1911143433        1.7819294513       -3.5928442319
 H        -7.9816884848        1.4400263198       -5.2671638149
 H        -5.7863715694       -0.4410621601       -0.9700998742
 H        -7.2176409842       -0.0094146106       -1.5237602297
 H        -6.0209048765        2.3376735783       -0.1120579193
 H        -5.9152455556        0.9179295958        0.8517270420
 H       -10.3322837272        2.5200669919        2.6004582271
 H       -11.2595654146        1.1498575316        2.9068175176
 H       -12.8918103430        2.4539224513        2.5855027912
 H       -12.5414985439        2.0841326756        0.7274390820
 H       -14.7883392976        6.0272573630        4.5093766198
 H       -13.5521116933        7.1503789778        4.0345795165
 H       -13.6853511157        5.1697945390        6.3826503862
 H       -13.6652695606        6.9676644677        6.2982035749
 H       -10.4708318501        6.2379903516       10.1187981129
 H       -12.1323862831        6.9833008146        9.9166118037
 H       -10.8009333176        7.3296862146        8.7415266012
 H       -10.3609672819        3.1135379517        6.5822375922
 H       -12.0897564139        3.4052413684        6.8104552504
 H       -11.1904990237        3.1882787700        8.2133706274
 H        -9.1509385332        5.7272214753        8.6098299734
 H        -9.1585947881        6.6176313825        7.0285451881
 H        -8.6008801736        4.9236919925        7.1408162096
 H       -13.5845449708        6.2403749575        0.1355772026
 H       -12.3476258251        6.7686144180        1.1678351381
 H       -14.2281325326        6.9308035944        1.8197934589
 H       -14.5884514688        4.0314260940        0.3976270948
 H       -15.4800729224        4.9785689711        1.5441428291
 H       -15.1230174083        3.3462980818        1.9467739730
 H        -7.5050763790       -1.2745684251        1.2213994297
 H        -8.4730841499       -0.9350441543       -0.0609372700
 H        -9.1781331271       -1.4879897578        1.2907545747
 H        -8.8873074533        0.8284052562        3.4121450426
 H        -7.8801458866        2.1911375888        2.6258323612
 H        -7.1897805109        0.3831019841        2.6352784526
 H        -4.0766535054       -1.1913223104       -3.1783526717
 H        -5.1542851993       -1.9680053652       -4.2643608098
 H        -5.4097025594       -1.7771590931       -2.4584674250
 H        -5.0149308187        1.7930212275       -4.6785185066
 H        -5.0129771438        0.1716052129       -5.6666370475
 H        -3.7009052941        0.5556912686       -4.5604138819
 H       -13.0369668162        2.5116277978       -5.4172176646
 H       -12.6952731381        1.1968965752       -6.6221092663
 H       -12.5869958922        3.0388415948       -7.0202875681
 H       -10.2473048524        2.1076628277       -7.9831357018
 H        -9.7858220038        0.7786181725       -6.6806607950
 H        -8.9497234942        2.2304719203       -6.8946692729
 H       -10.3035889122        6.0056326060       -0.7387487849
 H        -9.5117464715        7.5064019808       -0.5628424341
 H        -8.5993436801        6.0259812310       -0.4746377106
 H        -7.9345028811        7.9848786663       -2.8028623594
 H        -9.4300354947        8.3683404993       -3.1676995096
 H        -8.5977758538        7.4321387115       -4.4102826375
 Na      -10.4408360854        3.3145468648       -1.2100429816
