117

 C        -6.9623590145        5.1518668400       -3.5805136070
 C        -8.3919354612        5.0089671018       -2.9609470298
 O        -8.7407329910        3.8975799681       -2.5337812693
 C        -9.2457172172        6.2412222457       -2.7661999137
 C       -10.8113641737        5.9940585199       -3.2605551943
 O       -11.5492160010        5.4808044745       -2.4086815138
 C       -11.1300410487        6.1650404065       -4.7223770388
 C       -11.7440422758        4.8618251813       -5.2156698386
 C       -10.4814322011        3.7875447207       -5.5208232769
 O        -9.3384149376        4.2558223023       -5.3797906286
 C       -10.8711245947        2.3425750417       -5.9157500800
 C       -10.5644205821        1.6885605298       -4.4336499848
 O       -11.2914705165        2.0217235750       -3.5359572617
 C        -9.4422215723        0.6207241519       -4.2552550386
 C        -7.9385773615        0.8994426386       -4.5767866946
 C        -7.1206620194       -0.2488349724       -4.1060078562
 O        -7.7965285412       -1.3477954480       -4.1528392208
 C        -5.7820137045       -0.0794905302       -3.6134020154
 C        -5.8256610524        0.8201865558       -2.2723129679
 O        -5.4341163089        1.9337097586       -2.4395809262
 C        -6.2447271122        0.4017059929       -0.9081257261
 C        -6.4886286123        1.5491198242        0.1203243886
 C        -8.0106046005        1.7039600409        0.5145969747
 O        -8.4953909495        2.7849501473        0.1116672518
 C        -8.8662224582        0.7649423441        1.4966236753
 C       -10.2811783046        1.2531327779        1.1434747131
 O       -10.7237857655        1.0237094885        0.0346497945
 C       -10.9529421714        2.1464941395        2.1114042446
 C       -12.2179174145        2.8637997977        1.4993476670
 C       -12.1099257139        4.3589613259        1.3622563848
 O       -11.1733671691        4.8704998871        0.8231417693
 C       -13.3812522161        5.1913062936        1.9410917914
 C       -12.9598528680        5.1791979658        3.4236376346
 O       -12.7088348436        4.0519717065        3.9400152318
 C       -13.2207077973        6.3668237857        4.3158972547
 C       -12.9736900026        6.0242199740        5.8299403918
 C       -11.4480439749        6.0526490534        6.1099368248
 O       -10.5875137134        6.4322107554        5.3324338286
 C       -10.9773354266        5.3334388304        7.3648349093
 C       -11.9110741899        5.7560236942        8.5282546502
 O       -13.1201502981        5.5332183624        8.4482058255
 C       -11.3599871788        6.4075073344        9.8017714459
 C       -11.0814166044        3.7646016761        7.0837029136
 C        -9.4615110981        5.5669779045        7.5403043451
 C       -13.2403441070        6.6395368854        1.4785666848
 C       -14.6720568422        4.4530587696        1.6702441810
 C        -8.8664793853       -0.6526883959        1.0120143863
 C        -8.3687982044        0.5732629604        2.9592233637
 C        -5.1561970443       -1.5723076500       -3.1786752779
 C        -5.0853082355        0.6314841717       -4.8618708134
 C       -12.3861594152        2.0738393373       -6.2679965726
 C       -10.0535984880        2.0078386793       -7.1533490350
 C        -9.1657477081        6.5137844940       -1.2783514215
 C        -8.5343633644        7.5512933620       -3.3451701487
 H        -6.6715755854        5.9051654715       -4.3063775430
 H        -6.5776817382        4.2600823508       -4.0057059268
 H        -6.2142405742        5.3301375433       -2.8279002490
 H       -10.3119317650        6.5923154369       -5.2505107583
 H       -11.9334121269        6.9144789452       -4.7337339077
 H       -12.3559987149        5.0971179478       -6.1038898980
 H       -12.5005414258        4.4690276759       -4.4533302138
 H        -9.7897939800       -0.2594824880       -4.8207664419
 H        -9.6374883349        0.1863362198       -3.2474004231
 H        -7.7501804820        1.8362850621       -3.9409723820
 H        -7.9352810265        1.2218475736       -5.6217096623
 H        -5.4505191792       -0.1563943796       -0.4013853578
 H        -6.8784703398       -0.4634582135       -0.8203903088
 H        -6.2725545708        2.6175610755       -0.1568290404
 H        -5.9103334548        1.4160030490        1.0445843841
 H       -10.1456408354        2.8580104153        2.5648934857
 H       -11.2603234785        1.4104833544        2.9408330821
 H       -13.0262514467        2.5467229355        2.0769202796
 H       -12.2257163357        2.5379201082        0.4668723975
 H       -14.2713482587        6.7008388145        4.0846725862
 H       -12.5754737236        7.2039567315        4.0274130127
 H       -13.4808787014        5.0955492087        6.0223006497
 H       -13.5272806981        6.7141481746        6.3371558562
 H       -11.0604006098        5.4328062768       10.1558932292
 H       -12.1137231631        6.9657195797       10.3492264383
 H       -10.4202779880        6.9775537769        9.6364442632
 H       -10.8967516346        3.6384422987        5.9879770779
 H       -12.0707615187        3.3596331218        7.4291980148
 H       -10.3588762200        3.3602749863        7.7998740642
 H        -9.1775613934        5.2255654348        8.4766257308
 H        -9.1161542666        6.5810842600        7.3892805634
 H        -9.0012028730        4.8541053986        6.8536377545
 H       -13.0514979016        6.6261251345        0.4301715983
 H       -12.5171590775        7.1594639314        2.0557273484
 H       -14.1706171683        7.0565762057        1.6640469579
 H       -14.7023156478        3.7345043940        0.8652581740
 H       -15.5743669627        5.0328081442        1.6178931872
 H       -14.8923103965        3.8875463580        2.5651739659
 H        -7.9052762100       -1.1572922839        0.9310501881
 H        -9.5343412152       -0.8518685660        0.0771127758
 H        -9.3159703341       -1.3489532150        1.7566860315
 H        -9.1070994392       -0.0732588266        3.2825854758
 H        -8.4962546625        1.6067271461        3.3302119536
 H        -7.4419836709        0.2302460164        2.9350359364
 H        -3.9940886314       -1.5895627488       -3.1709316622
 H        -5.3205635085       -2.2969395076       -3.9558092798
 H        -5.5269005600       -1.9616318798       -2.1886923761
 H        -5.7185691357        1.4413294560       -5.0556274564
 H        -5.1061356479       -0.0145601997       -5.7740376926
 H        -4.0347553584        0.9036443604       -4.5506527598
 H       -13.0610791747        2.8844567271       -5.9806823205
 H       -12.7293893446        1.2475786382       -5.7207509977
 H       -12.4862752733        1.9507306655       -7.3327725601
 H       -10.4228132805        2.6688439697       -7.8664150458
 H       -10.0065350809        0.9537904740       -7.4897232320
 H        -8.9732997854        2.2790650587       -6.9965059631
 H        -9.5480633266        5.7630784053       -0.5609039869
 H        -9.6079512953        7.4212711485       -0.9954712604
 H        -8.1251182352        6.6995702449       -0.9281224203
 H        -7.5977459135        7.6383080377       -2.7913928439
 H        -8.9444209201        8.5134276775       -3.2346035771
 H        -8.5802971491        7.3127614132       -4.4259027923
 Na      -10.6838217056        3.0315269693       -1.3387700936
