117

 C        -6.9788102914        5.0367589135       -3.7085952292
 C        -8.3606464082        4.9641278468       -3.0700476853
 O        -8.6887838343        3.8734556983       -2.5389696053
 C        -9.1222193198        6.2728059549       -2.8118515712
 C       -10.6238041682        5.9740546751       -3.1508161609
 O       -11.4097448542        5.5033439330       -2.3520892859
 C       -11.1005245706        6.2099548558       -4.5949866361
 C       -11.6034758073        4.9795519668       -5.2605563016
 C       -10.5631469470        3.8333259539       -5.5793044344
 O        -9.3936405164        3.9602679116       -5.5838328578
 C       -10.9515208756        2.3151555451       -5.9264761070
 C       -10.5375617798        1.6689825227       -4.5491306043
 O       -11.2630140614        1.9385744797       -3.5575014603
 C        -9.4169110573        0.6796915740       -4.2418909180
 C        -8.0102470488        0.9143722497       -4.5547848615
 C        -7.3613839083       -0.4583465078       -4.0312853704
 O        -7.8946479488       -1.4764172194       -4.1548679529
 C        -5.8195959052       -0.2166064170       -3.4765142151
 C        -5.6729602464        0.8158929248       -2.2443610349
 O        -5.2729044219        1.9159536120       -2.3545619576
 C        -6.1113610955        0.2089829630       -0.8306128944
 C        -6.4786576226        1.3867018872        0.1113479482
 C        -7.9848892970        1.7893400361        0.5675517215
 O        -8.5508335589        2.8312293809        0.1286371505
 C        -8.9455771519        0.7017847018        1.5345219794
 C       -10.3547521339        1.3018100742        1.2625858548
 O       -10.9146277833        0.9556686178        0.1471260701
 C       -11.0184668101        2.4568284355        2.1698773451
 C       -12.3243710084        2.8869118696        1.4255950457
 C       -12.1075518559        4.3879516515        1.1489570138
 O       -11.1629908546        4.9419224001        0.6634028793
 C       -13.2612611453        5.2740232330        1.9225183376
 C       -12.9652111334        5.1136063049        3.4739853268
 O       -12.7408161517        3.9941679492        3.9851880074
 C       -12.9339824501        6.4201091839        4.2381236383
 C       -12.8373484974        6.1438208689        5.7264135106
 C       -11.4410781246        6.1207475910        6.1271826714
 O       -10.5601282426        6.4689861126        5.3060518098
 C       -10.8880484013        5.3637399320        7.4716864992
 C       -11.9313437876        5.6857182754        8.6554438280
 O       -13.1129412368        5.6899088824        8.3801015013
 C       -11.3611588059        6.2644936585        9.9879858236
 C       -11.3157054646        3.8965434302        7.1100463544
 C        -9.3486806279        5.6468265326        7.7357292341
 C       -13.2089940126        6.7952383380        1.4052599529
 C       -14.7154843866        4.7707286888        1.7872367473
 C        -8.9525419300       -0.7469533083        0.8058529482
 C        -8.6158815588        0.6348350187        3.0600544015
 C        -4.9954378980       -1.4946004047       -3.1436813192
 C        -5.0147329836        0.4257601994       -4.6089520501
 C       -12.3337444455        1.7897128842       -6.2526300914
 C       -10.0260055164        2.1393774711       -7.2379254865
 C        -9.2494757938        6.4418874528       -1.2551032477
 C        -8.6642681503        7.4961613894       -3.6236344092
 H        -6.8708972301        5.7835852564       -4.3750758435
 H        -6.6003385488        4.1472050076       -4.1728790633
 H        -6.1559731503        5.2965071690       -3.0677123004
 H       -10.3923743845        6.7633555450       -5.1426231251
 H       -12.0580474049        6.8507894542       -4.5542836464
 H       -12.1855367118        5.2030892855       -6.1037899279
 H       -12.3757484351        4.5577067168       -4.5922646934
 H        -9.7205889180       -0.3646360939       -4.4883953337
 H        -9.4975955333        0.5871621014       -3.1621039018
 H        -7.7684360263        1.8582564231       -4.2073783753
 H        -7.8769099591        0.9295605815       -5.7003108967
 H        -5.4165321242       -0.4154820934       -0.3033550449
 H        -6.8409884852       -0.5440423563       -0.9089533830
 H        -6.1093931297        2.3247125608       -0.2467107156
 H        -6.0393872889        1.3392019725        1.1140908187
 H       -10.3405897774        3.3368995450        2.1624733753
 H       -11.2183573986        2.1370681434        3.2613859743
 H       -13.1694311141        2.7017013816        2.0802088467
 H       -12.3515335948        2.2635587131        0.5303139531
 H       -13.7934252180        7.0521269077        3.9069417473
 H       -12.0610786121        6.9153859497        3.9157645567
 H       -13.3773539887        5.2194209176        5.8937395216
 H       -13.4355464576        6.8770991010        6.2541788531
 H       -10.8997402058        5.4486577787       10.5372467147
 H       -12.0345295329        7.0525636837       10.4244306938
 H       -10.4212021679        6.8307285270        9.4515504725
 H       -11.3330647935        3.8891759509        6.0295102157
 H       -12.3294981436        3.6830456719        7.4949591137
 H       -10.6338144241        3.1935909153        7.6141843774
 H        -8.7511086104        4.9087852637        8.3345142730
 H        -9.3790601226        6.6380699068        8.2087733391
 H        -8.8998519784        5.7312219883        6.7897367262
 H       -13.2495446886        6.6949491647        0.3577544844
 H       -12.4055002455        7.3521296937        1.9739070424
 H       -14.2272961065        7.3258291748        1.6934009330
 H       -15.1224626511        4.3730249814        0.8673849768
 H       -15.2904953908        5.5563610710        2.0684930795
 H       -15.0462902505        4.0870621199        2.5754731832
 H        -7.9250053301       -1.3379896551        0.6780049788
 H        -9.5251161596       -0.7459360305       -0.0682384735
 H        -9.4771018322       -1.6150058886        1.4099967076
 H        -9.2185480440       -0.1454373236        3.4252637654
 H        -8.9286736575        1.6027015703        3.2695170427
 H        -7.5553795473        0.6217780274        3.2167222238
 H        -4.0186177052       -1.3153994950       -2.8996764293
 H        -4.8482785552       -2.0479576825       -4.1297484132
 H        -5.5030645633       -2.1764788248       -2.4258249622
 H        -5.6892348728        1.2036698349       -4.9774902659
 H        -4.9145400883       -0.2160845346       -5.5332937851
 H        -4.0520290894        0.6816287709       -4.1530752758
 H       -12.9867488888        2.5340414664       -5.9839943628
 H       -12.6809150572        0.9452067704       -5.6730569037
 H       -12.3430856723        1.7008492507       -7.3171957352
 H       -10.3293428762        2.8889284192       -8.0112970031
 H       -10.1857917698        1.1861160137       -7.6760552218
 H        -8.9194240497        2.1566775508       -6.9921722955
 H        -9.3790233598        5.4705548452       -0.8219456451
 H       -10.0359961529        7.0237892385       -0.9568861146
 H        -8.4510818016        6.9016070199       -0.6532699609
 H        -7.5946661563        7.6137711802       -3.3300416950
 H        -9.0893701188        8.4477230077       -3.2837040637
 H        -9.0244686523        7.4169638030       -4.7030851311
 Na      -10.7842578467        3.1012222681       -1.4379007019
