117

 C        -7.0259120105        4.8632969372       -4.1064807659
 C        -8.2385733877        4.7231008690       -3.3251161287
 O        -8.5338720933        3.7168568184       -2.7555700016
 C        -9.1445013321        6.0610908855       -3.0928039281
 C       -10.5655938557        5.7245472724       -3.4477395288
 O       -11.2143980929        5.0543759927       -2.7115685395
 C       -11.1507175235        6.1389686988       -4.8056713949
 C       -11.5669724271        4.6824340608       -5.3080112231
 C       -10.4624627476        3.7956638858       -5.7167448230
 O        -9.3656519929        4.1505766386       -6.0811586540
 C       -10.8838423161        2.1479741049       -5.7876856072
 C       -10.5759268194        1.5746828323       -4.2921661323
 O       -10.7842092593        2.2986710956       -3.3098094381
 C        -9.5705189928        0.3433444409       -4.0913729932
 C        -8.0900252159        0.7381682440       -4.0079399824
 C        -7.3255011375       -0.5044412889       -3.6297397387
 O        -7.8138254832       -1.5317671140       -3.6877371451
 C        -5.7428887472       -0.3138359552       -3.1957080031
 C        -5.9033710863        0.6729974369       -1.9833585131
 O        -5.2850670775        1.7365415963       -1.8016913293
 C        -6.6141485969        0.0175768021       -0.8183222858
 C        -6.7472578771        0.9732850308        0.3123206352
 C        -8.1860787229        1.4603458654        0.4347799009
 O        -8.4212558218        2.4702736835       -0.2638220054
 C        -9.3049214010        0.7234904259        1.1321638496
 C       -10.6408732131        1.3983700677        0.7438273761
 O       -11.1359632584        0.8603386607       -0.2877336055
 C       -11.1655047323        2.5111831564        1.7057453963
 C       -12.6417571917        2.9814053180        1.4905285952
 C       -12.5839162668        4.4131186612        0.9942885396
 O       -12.1490921620        4.6252488647       -0.0981450023
 C       -13.1723400891        5.7046846629        1.8246068443
 C       -12.8630215672        5.7180780935        3.4871424634
 O       -12.9130627677        4.6693296484        4.0375672238
 C       -12.4912883058        6.9967512045        4.2743942220
 C       -12.3990642714        6.6194415533        5.8052001944
 C       -11.0355379723        6.3177108386        6.3230101167
 O       -10.0405941846        6.8399285121        5.8548534972
 C       -10.9270096678        5.3435422944        7.6339425810
 C       -11.8021353337        6.0250339483        8.7805781275
 O       -12.9328130073        6.2504812637        8.4830454151
 C       -11.4500099157        5.9768255771       10.3460815983
 C       -11.4683144754        3.9567502969        7.3781945556
 C        -9.4176141782        5.4855877736        8.2066634992
 C       -12.7032048624        7.0271996137        1.1334497683
 C       -14.7274106762        5.6084001650        1.6075925590
 C        -9.2886586145       -0.8356309326        0.8778916321
 C        -8.8624819806        1.0570713780        2.6298328823
 C        -5.0489001487       -1.6847383094       -2.8243714151
 C        -4.8497696892        0.2699688711       -4.3240096837
 C       -12.3916963461        2.0392678939       -6.2651058842
 C        -9.9407892180        1.5687081339       -6.8171856430
 C        -9.1106476101        6.2283359531       -1.4964890516
 C        -8.6707022707        7.1932936087       -3.9389279429
 H        -7.2258815508        4.7600092547       -5.1700537716
 H        -6.3844990828        4.1345777006       -3.6988634413
 H        -6.4754956336        5.7575092879       -4.1380496656
 H       -10.4657211508        6.5125883327       -5.5317981267
 H       -11.9897768886        6.8564552003       -4.6695339949
 H       -12.2744835661        4.6545171855       -6.1272395181
 H       -12.1559568647        4.0216337900       -4.6140675163
 H        -9.6915559280       -0.5173018148       -4.8334213749
 H        -9.7784039740       -0.0203704094       -3.0816406953
 H        -7.7724198355        1.5298301920       -3.3560781917
 H        -7.5545754232        0.9361967143       -5.0083242630
 H        -6.0225912501       -0.8294503268       -0.4258726027
 H        -7.5350057230       -0.4388639231       -1.1474761910
 H        -6.0927271377        1.8191490927        0.0411857489
 H        -6.4125105615        0.5979883921        1.3107314602
 H       -10.5053350947        3.4466654661        1.5854914359
 H       -10.9411716733        2.0577609876        2.7567090725
 H       -13.2492489692        2.8734880284        2.3800409613
 H       -13.0811077823        2.3529109394        0.7577008349
 H       -13.2394417140        7.7983053729        3.9649352273
 H       -11.4865082944        7.3464488961        4.0609648146
 H       -13.1013569072        5.8685128189        5.9805086466
 H       -12.7620369494        7.4620487190        6.3422318560
 H       -10.9645666103        4.9552078787       10.5088876555
 H       -12.4050620986        6.0628257394       10.9666190466
 H       -10.9699797026        6.9088378691       10.5190616622
 H       -10.6677552430        3.3162331487        6.9480661523
 H       -12.3376222261        4.0691323180        6.7021613732
 H       -11.7013791231        3.5458580549        8.3972721510
 H        -8.9325724090        4.4944453911        8.1205626687
 H        -9.3786182245        5.7112836422        9.2541309548
 H        -8.9518696006        6.2509672558        7.6848931825
 H       -13.0190494363        6.8404249987        0.0789152097
 H       -11.6784386728        7.1826543442        1.3092053757
 H       -13.1801952481        7.9073866172        1.4197670162
 H       -15.0678475953        6.1863522635        0.7494693869
 H       -15.3344408158        5.9445446551        2.4310427895
 H       -15.0668449010        4.5884074459        1.3561771795
 H        -8.1985644873       -1.1620879874        0.7686746877
 H        -9.8529825088       -1.1503897692       -0.0492540719
 H        -9.7919615927       -1.4960063902        1.6722206722
 H        -9.6232062314        0.7115533252        3.2309824762
 H        -8.4597085503        1.9645908884        2.6779352504
 H        -8.0211161230        0.3308292075        2.5871138871
 H        -4.0073616953       -1.5133673523       -2.7725937890
 H        -5.1445989069       -2.3959649807       -3.7413938078
 H        -5.5662133933       -2.2737782442       -2.0392111259
 H        -5.2591898590        1.2852953640       -4.6022866179
 H        -5.0749227203       -0.1930602605       -5.2664988047
 H        -3.8938797318        0.2111425931       -3.9397056056
 H       -13.0582451690        1.9272191148       -5.4573992272
 H       -12.4731026258        1.2467998947       -7.0470632491
 H       -12.5467140948        2.9561491490       -6.7949908108
 H       -10.4216602513        1.5862992988       -7.8132827455
 H        -9.8290037558        0.5280331304       -6.7213700424
 H        -9.0752083609        2.1458500298       -6.7278240595
 H        -9.9659308893        5.7076959511       -1.1322653344
 H        -9.2517320537        7.3171242627       -1.2093835915
 H        -8.3688109133        5.8779366380       -0.8229269307
 H        -7.6338255908        7.2968879257       -3.6278141388
 H        -9.3631254284        8.0703816727       -3.8181267091
 H        -8.6562746094        6.8806743834       -4.9932836676
 Na      -10.3507845316        3.1660001351       -1.1546820325
