117

 C       -13.2745354204       -0.2801112338       -9.2271652027
 C       -12.0133239413       -1.0768073903       -9.1135875774
 O       -12.1031606402       -2.2664540583       -9.4549617416
 C       -10.7009517420       -0.4025442399       -8.5853764186
 C       -10.9115929215        0.0221268644       -7.0981211415
 O       -11.6391533711        0.9374280357       -6.8343236874
 C       -10.3225409534       -0.8475570846       -5.9647483533
 C        -9.9458712268       -0.0802579294       -4.6382430822
 C       -10.6014485957       -0.5821680640       -3.3205579040
 O       -11.5652531542       -1.3260754877       -3.4099813254
 C       -10.1957643853       -0.0249708175       -1.9294093374
 C       -10.9420232320        1.3336223006       -1.7905622357
 O       -10.4767486316        2.2735328973       -2.4286685468
 C       -12.3165029499        1.3404837094       -1.0195288301
 C       -12.9152780933        2.6968609822       -1.0940441641
 C       -12.0162713145        3.7941407300       -0.4158196174
 O       -11.0764772314        3.4056073473        0.2993517937
 C       -12.2604780741        5.2401998963       -0.8561993416
 C       -12.4354005435        6.0361076388        0.5036116139
 O       -11.5202131211        5.9517215163        1.2898223432
 C       -13.5639344235        6.9520925724        0.8668782633
 C       -13.4445519190        7.2618138433        2.4444531974
 C       -11.9755089595        7.8718208853        2.8261250711
 O       -11.6958354192        8.8987538697        2.2365928179
 C       -10.9570817206        7.3647049847        4.0650037159
 C        -9.5729539149        7.6639857330        3.3977672449
 O        -9.0979829612        6.8751686138        2.5769614679
 C        -8.9205066481        8.9951863892        3.8221148667
 C        -7.3409652302        8.8543201920        3.7431959044
 C        -6.7499150074        7.7640927538        4.6164807579
 O        -7.1955674668        7.5375357519        5.7299487419
 C        -5.4410640189        6.8616908562        4.2934102772
 C        -5.7925154287        5.2954447301        4.2197012157
 O        -5.3535636271        4.6554643954        3.2626062923
 C        -6.8269243264        4.6994830888        5.1644221034
 C        -7.2653259470        3.2156435228        5.0670715344
 C        -8.1780412609        3.0018923925        3.8287540662
 O        -9.0472585315        3.7759031032        3.6005393612
 C        -7.9228825017        1.9080093100        2.7494554313
 C        -7.1371170594        2.6211030596        1.5248285211
 O        -7.6715694493        3.4841818769        0.8840384597
 C        -5.7747035938        2.2290522320        1.1391430301
 C        -7.0027445755        0.7674592117        3.2985309485
 C        -9.2688852363        1.2181644640        2.2985015470
 C        -4.7513035386        7.1959391158        2.9782174300
 C        -4.6053800013        6.9743667453        5.5541125748
 C       -11.4173990314        8.3102476323        5.2211826712
 C       -11.0491329483        5.8283832435        4.3958367581
 C       -10.9065009857        5.7350552046       -1.4367244887
 C       -13.4010156750        5.4894167934       -1.8271260563
 C       -10.5469231495       -1.0822353672       -0.8784786337
 C        -8.6625711202        0.2343827078       -1.8960384101
 C        -9.6024790475       -1.3935131753       -8.6430809609
 C       -10.3771229391        0.8211075942       -9.3548161692
 H       -14.2206402612       -0.7448044116       -9.0377975324
 H       -13.2853012026        0.2867144526      -10.1332012868
 H       -13.3303966327        0.5336694710       -8.6244218200
 H        -9.4774908100       -1.3655734034       -6.3312551490
 H       -11.1172156174       -1.5567154718       -5.7576365984
 H       -10.3056462310        0.8931061784       -4.8479505341
 H        -8.8454926198       -0.1095188449       -4.6333141311
 H       -12.2648269551        0.9140029660       -0.0196865371
 H       -13.0478624817        0.6425854858       -1.4609630670
 H       -13.9055920577        2.6938260785       -0.6505207853
 H       -13.1626226309        2.9528443422       -2.1480120552
 H       -14.6164205275        6.5920812186        0.6591174211
 H       -13.5540694707        7.8693130256        0.3530922031
 H       -13.7367874189        6.4241807075        3.0357591943
 H       -14.1988680044        8.0570581518        2.5210867466
 H        -9.2301238104        9.1660837165        4.8379737728
 H        -9.3712539938        9.7530863294        3.2259609326
 H        -7.0102197047        9.8093292537        4.1317777543
 H        -7.1007441023        8.7685428594        2.7194594098
 H        -7.6655820155        5.3493672746        5.0669241306
 H        -6.4847895576        4.9596244544        6.1597923923
 H        -7.9590119945        3.0611747842        5.8854745157
 H        -6.5051496510        2.4277170518        5.1544010427
 H        -5.6691128861        1.1701856063        1.1585395925
 H        -4.9984330685        2.6056290277        1.8703306128
 H        -5.5608665827        2.5521552903        0.1353507762
 H        -7.4191869058        0.3732016244        4.2519552746
 H        -5.9926770201        1.0942649464        3.3962252928
 H        -7.0610182279       -0.0310531131        2.6087091617
 H        -9.7906881086        1.7454806418        1.4052949635
 H        -9.9684843765        1.3233549165        3.1432385166
 H        -9.0944060886        0.2318448460        1.9631154584
 H        -5.0959098859        7.9981393496        2.3850119923
 H        -4.7666914708        6.3187110429        2.3840474053
 H        -3.6379341344        7.2629298749        3.1501063115
 H        -3.7146923900        6.3920710731        5.4240709907
 H        -5.1861896706        6.6656396540        6.3619086455
 H        -4.3554492164        7.9974505238        5.6675577184
 H       -12.3569268057        7.8907967958        5.5553098826
 H       -11.5824790065        9.3275903840        4.9791891807
 H       -10.6181539011        8.2668687177        5.9592662825
 H       -10.9578923122        5.1453952190        3.6015960337
 H       -12.0714192688        5.7332096341        4.8971563934
 H       -10.2055213078        5.5599487369        5.0520821751
 H       -10.0640042964        5.8889694384       -0.7235222896
 H       -10.9244810225        6.7315693219       -1.9596414481
 H       -10.5673422605        5.0423447563       -2.1422887315
 H       -13.2222400196        5.2426477375       -2.8689944101
 H       -13.6287167290        6.5671603951       -1.9336883509
 H       -14.3486985514        5.1553262088       -1.4726174911
 H        -9.7966179835       -1.8239319996       -0.9352898093
 H       -11.5304712257       -1.4892357032       -1.0763748732
 H       -10.4084507141       -0.6350813378        0.1211903405
 H        -8.2271114445       -0.7728637104       -1.6435926632
 H        -8.3404757759        0.9653524576       -1.1339400605
 H        -8.2499043203        0.3819544894       -2.8775081241
 H        -9.8562390649       -2.1699282546       -7.8591555957
 H        -8.6497962933       -1.0117121516       -8.3739536959
 H        -9.5588562680       -1.9301461581       -9.5966498987
 H       -11.1804677001        1.5684002629       -9.1314337397
 H       -10.3301629615        0.5252782641      -10.3815579018
 H        -9.3966548689        1.1777531338       -9.1413406087
 Na       -9.5074566868        4.8853901440        1.6575771255
