117

 C        -6.9555844677        4.7657244573       -4.5047395795
 C        -8.1247575715        4.7175862670       -3.5403544429
 O        -8.3516796085        3.7480210241       -2.8917825615
 C        -9.0178584181        5.9710477521       -3.4835640020
 C       -10.4399111811        5.6331060862       -3.8552889284
 O       -11.1623596164        5.0844116930       -3.0698005284
 C       -10.9926878952        6.0698021857       -5.2512157764
 C       -11.5877398692        4.5650284465       -5.7433544003
 C       -10.4939337843        3.5254386289       -5.9980368390
 O        -9.3508417052        3.8141684825       -6.3578401916
 C       -10.6966188422        1.9621874636       -5.8336471132
 C       -10.4162701711        1.7004497254       -4.3410063201
 O       -10.8512261940        2.5333925367       -3.5434997549
 C        -9.7169038113        0.3522935691       -3.7218432575
 C        -8.2801471803        0.6751207528       -3.4206265799
 C        -7.3823246966       -0.6926622613       -3.3664861721
 O        -7.8739203552       -1.7652861379       -3.2722051815
 C        -5.7612940022       -0.4599835425       -3.1194075264
 C        -5.7324142689        0.1708707306       -1.6457451028
 O        -5.4041011068        1.4264373917       -1.6208865644
 C        -6.2589737914       -0.4729341060       -0.3594389193
 C        -7.0046338480        0.4105350317        0.7198621891
 C        -8.4639520058        1.3034133285        0.4954547724
 O        -8.6840700528        1.9643147278       -0.4388099432
 C        -9.7580415344        0.9328154309        1.4629117308
 C       -10.9862983895        1.7211658605        1.0985637495
 O       -11.3712320089        1.7787778796       -0.0750595397
 C       -11.7889855329        2.4013752754        2.1644378284
 C       -12.9379440189        3.2149904815        1.4407112506
 C       -12.5649479463        4.5981860690        0.9952298685
 O       -11.8859381034        4.8225199215        0.0149732284
 C       -12.9149141792        5.8589104541        1.9784392571
 C       -12.4836839007        5.5390213366        3.3858264635
 O       -12.8851412110        4.5708341428        3.9618609319
 C       -11.7672092907        6.7148482593        4.1047757328
 C       -12.1473650233        6.6617380076        5.6629101948
 C       -10.8532796512        6.5171155067        6.4333558839
 O        -9.8201314967        6.9590770785        6.0632829990
 C       -10.9238189503        5.6338092934        7.7395591250
 C       -11.8534874033        6.3660695945        8.7774183020
 O       -12.7244072677        7.1174790308        8.4323047073
 C       -11.7246909884        5.8128296733       10.2164175625
 C       -11.7558451188        4.2490783997        7.2429342251
 C        -9.5611724613        5.4528904327        8.3473764460
 C       -12.1271613910        7.0490208333        1.3031009377
 C       -14.4314839609        6.2298405647        1.8915348202
 C       -10.1090911899       -0.5253111681        0.9949062666
 C        -9.2033527210        0.9503859384        2.9507729845
 C        -5.0825141592       -1.8457331020       -3.1575255958
 C        -5.0534263197        0.4675160761       -4.1977082043
 C       -12.1451699516        1.4160406992       -6.1149524820
 C        -9.7223893337        1.1481589722       -6.8549168731
 C        -8.9314838974        6.2392697582       -2.0237942994
 C        -8.5122100053        7.2175423474       -4.3026958309
 H        -7.4034059943        5.1616074681       -5.5156044175
 H        -6.4110256695        3.8209337568       -4.4859218910
 H        -6.2570293534        5.5770896829       -4.4240061434
 H       -10.1590730732        6.1987486353       -5.9140891105
 H       -11.7670478750        6.8023306405       -5.2775755961
 H       -12.1708566073        4.4533430428       -6.7202386679
 H       -12.3402717945        4.1399290884       -5.0212173888
 H        -9.8223599527       -0.3385553387       -4.5673543792
 H       -10.1983386565        0.1722335177       -2.7722169075
 H        -8.1000782915        1.1532706755       -2.4816910171
 H        -7.8764861229        1.3867437212       -4.1954485359
 H        -5.3748504882       -0.7969395062        0.2437156017
 H        -7.0178213624       -1.2178132914       -0.6192276600
 H        -6.2654928987        1.1850054205        1.0858893701
 H        -7.2314266591       -0.3124266934        1.5561520459
 H       -11.0422904970        3.0245647033        2.7362087157
 H       -12.2816667026        1.6642368821        2.8594398625
 H       -13.8290359966        3.2106662143        2.0772494252
 H       -13.2672681547        2.6123740269        0.6296676938
 H       -12.0807123059        7.7360870450        3.7181871144
 H       -10.6930606966        6.5330513352        3.9831694243
 H       -12.8818182431        5.9349173235        5.7780655292
 H       -12.6429837323        7.5786164075        5.9063585668
 H       -11.7607448707        4.6483106388       10.2714642115
 H       -12.5999970957        6.2721396844       10.7763503253
 H       -10.8749649195        6.1996163010       10.6357319212
 H       -11.5960396163        4.0270721928        6.2123293449
 H       -12.7826508580        4.3345489908        7.5098586085
 H       -11.2645485281        3.4452139997        7.7722804013
 H        -8.7728988336        5.6910011969        7.5743152069
 H        -9.3119885618        4.5185077197        8.8278701171
 H        -9.6532206950        6.1871089744        9.0934244141
 H       -12.4417357244        7.2834748804        0.2706174846
 H       -11.1049736374        6.8064914498        1.1943734664
 H       -12.2517196328        7.8336296375        1.9003297046
 H       -15.0553096264        5.5109585210        1.3492834341
 H       -14.5714976706        7.1983339875        1.2952098687
 H       -14.8455830881        6.3091698428        2.9085803541
 H        -9.5637262101       -1.3316790127        1.3916283285
 H        -9.7645980928       -0.5697938140       -0.1371482447
 H       -11.2035775862       -0.6624645350        1.0783606738
 H       -10.0386280974        0.7886906427        3.5568923149
 H        -8.7832171533        1.8950984721        2.9672820019
 H        -8.5792669669        0.0313669990        2.9952380281
 H        -4.0391433062       -1.7997670847       -2.6750183905
 H        -5.1266140357       -2.2030059631       -4.2222191175
 H        -5.6991545104       -2.5550933093       -2.5843632979
 H        -5.5837871470        1.4995356543       -4.1257811257
 H        -5.1855205003       -0.0042934414       -5.1656973790
 H        -4.0632542534        0.7048149658       -3.9405929274
 H       -12.7479736644        2.2907414985       -5.9200639967
 H       -12.1853308030        0.4727850758       -5.5468080972
 H       -12.2860915372        1.2031404260       -7.1706834331
 H        -9.6655173115        1.7284443086       -7.7928189290
 H       -10.2373794224        0.1743533978       -6.9741404195
 H        -8.7691730895        1.0927067211       -6.5339305803
 H        -9.3250903033        7.1907564860       -1.6408765850
 H        -7.8825901823        6.2997804637       -1.4940637346
 H        -9.5659210070        5.5667634501       -1.5539117299
 H        -7.5362477320        7.2135909086       -3.9567211228
 H        -9.1173033633        8.1470416513       -4.2821420526
 H        -8.3225706481        6.8921511818       -5.2394192167
 Na      -10.4696304483        3.4488587414       -1.4546782434
