117

 C        -7.1443735064        4.5782251145       -4.7515321209
 C        -8.1579629598        4.7467777846       -3.7371193917
 O        -8.5321040812        3.9162778961       -2.9901627925
 C        -8.8905729836        6.2489737782       -3.7035072695
 C       -10.3662641915        5.8437253597       -4.0685685070
 O       -11.2260841700        5.7467706517       -3.2293194877
 C       -10.7556208526        5.7161748980       -5.5641850904
 C       -11.4189885574        4.2494101812       -5.9808385399
 C       -10.3315759151        3.1370376157       -6.2199761761
 O        -9.2231540984        3.5424678301       -6.4820721308
 C       -10.6141651311        1.5441443402       -5.9742736514
 C       -10.6185681189        1.4723677428       -4.4568961965
 O       -11.1877567504        2.3242359564       -3.7179734896
 C        -9.8397942531        0.2428881065       -3.7730377307
 C        -8.3763117398        0.5834751921       -3.6975018253
 C        -7.6031171829       -0.6276924939       -3.1404055268
 O        -8.1205279571       -1.6783326386       -3.1923234395
 C        -6.0879777917       -0.4157020284       -2.7571025085
 C        -6.0724234036        0.3160634503       -1.2541063377
 O        -5.3449539544        1.2915849524       -0.8898967906
 C        -6.8418640300       -0.5378114970       -0.2150581150
 C        -7.3439277721        0.3165322849        0.9213877729
 C        -8.6862835157        0.9012405727        0.5391175282
 O        -8.6904654173        1.4808154355       -0.5954973209
 C        -9.8864788228        0.7446790715        1.4180178484
 C       -11.1232344588        1.7962263333        0.9066236904
 O       -11.2378740144        2.1126631933       -0.2608037034
 C       -12.0755062520        2.2226382571        2.1072038997
 C       -12.9562950744        3.3369877400        1.4964095214
 C       -12.0806741785        4.5414537250        1.1319665063
 O       -11.2406083134        4.6893177833        0.3238956770
 C       -12.5753932517        5.9807718982        1.7801197372
 C       -12.2808916148        5.8914472254        3.3138748495
 O       -12.5237785679        4.8568532559        3.8739737743
 C       -11.6983793122        7.1006251522        4.1005370372
 C       -11.8608657906        6.9142054399        5.6538078102
 C       -10.6440014532        6.4405027262        6.5570132881
 O        -9.5689385116        6.8805042822        6.2312556806
 C       -10.9648911150        5.6698085020        7.8317926921
 C       -11.7515193694        6.5178246409        8.9200241408
 O       -12.2653150473        7.5005339948        8.5374267314
 C       -12.2865745093        5.9825024789       10.3126382803
 C       -11.6885895155        4.3392159018        7.6248189467
 C        -9.5809728081        5.3526681034        8.5745317800
 C       -11.9454419898        7.2018140096        1.0989842580
 C       -14.1425887328        6.2404625570        1.6465218916
 C       -10.6051126256       -0.6447995444        1.4406943599
 C        -9.4779043307        0.8938406404        2.9741776831
 C        -5.4471918025       -1.7300549657       -2.5418651704
 C        -5.3307819807        0.6125351441       -3.7809465843
 C       -12.0585957552        1.3143101055       -6.5694774702
 C        -9.6720757364        0.5102096739       -6.6820442759
 C        -9.0008111721        6.7881054484       -2.2875818497
 C        -8.2772665408        7.1904935978       -4.7386181311
 H        -7.4209304874        4.8986922875       -5.8521766599
 H        -6.7234750422        3.5603362352       -4.7968872768
 H        -6.3801537075        5.3176608086       -4.4645241286
 H        -9.9060924327        5.7309495888       -6.2039622202
 H       -11.5229773934        6.5219989919       -5.7768674559
 H       -11.9779713493        4.2617700027       -6.8947907952
 H       -12.1407655442        3.8636532370       -5.1961944288
 H        -9.9754794389       -0.6863278824       -4.3704355687
 H       -10.2488228664        0.1925027742       -2.7735175426
 H        -8.1820426696        1.5250808120       -3.3140636216
 H        -8.0057562561        0.5236451359       -4.7531135802
 H        -6.0725892096       -1.2046331411        0.2351622062
 H        -7.7692599286       -0.9457986731       -0.5944335616
 H        -6.5697644680        1.0034170712        1.1893683805
 H        -7.5164505667       -0.3791729578        1.7399429307
 H       -11.5655653402        2.5820214948        2.9179066152
 H       -12.6219818137        1.3550418879        2.3991985911
 H       -13.8963472124        3.5882316511        2.0663633110
 H       -13.3936393955        3.0356302088        0.5091537927
 H       -12.2043634576        8.0112395158        3.7191517177
 H       -10.6562964533        7.2116899956        4.0386109707
 H       -12.7753161796        6.2418743803        5.7731748078
 H       -12.1346448714        7.9044172464        6.1226613440
 H       -12.2588597031        4.8924971607       10.1689536023
 H       -13.3456585763        6.0767291436       10.2352316875
 H       -11.9403730454        6.3714719364       11.1191596376
 H       -10.9470887526        3.6316786429        7.2327412140
 H       -12.5092844709        4.5071731109        6.8767622643
 H       -12.1019499163        3.9332219081        8.5811312431
 H        -8.9590260462        6.2936828129        8.6974944967
 H        -9.1500723405        4.5941584008        7.8597630808
 H        -9.7171401346        4.7803335902        9.4633256501
 H       -12.0778235104        7.0204491091       -0.0409836514
 H       -10.8586828571        7.2439015039        0.9937424311
 H       -12.4022333772        8.0819040533        1.4150572903
 H       -14.7737939454        5.8512280374        2.4275156851
 H       -14.3955106520        5.7508046253        0.7212375740
 H       -14.3437098252        7.2938634324        1.4966158880
 H        -9.9616579909       -1.3911935415        1.2682782451
 H       -11.3449107416       -0.7177296953        0.6143229604
 H       -11.0564987955       -0.7877910165        2.3569099642
 H       -10.4158998412        0.9427154535        3.5711828321
 H        -9.0122701759        1.8590217359        2.9621041271
 H        -8.9259252140       -0.1342808091        3.0563064686
 H        -4.4754540629       -1.6152650838       -2.1237705316
 H        -5.5770939826       -2.3151818965       -3.4440443496
 H        -5.9498378151       -2.1684092918       -1.7449491187
 H        -5.2515508726        1.6386928079       -3.3057764409
 H        -5.7682153471        0.4857931230       -4.7667770955
 H        -4.3187340602        0.3763928754       -3.9882028789
 H       -12.8069998070        1.2471366753       -5.8036395929
 H       -11.8754614949        0.3476082553       -7.0763925523
 H       -12.2928335536        2.0967744039       -7.2737379950
 H        -9.9456441420        0.6678711389       -7.7832300775
 H        -9.7859008570       -0.3867707382       -6.0747470394
 H        -8.6397312664        0.8148324681       -6.6539912850
 H        -8.7090378767        7.8320082262       -2.2741226345
 H        -8.1632543250        6.3660415321       -1.5469435334
 H        -9.9035664912        6.7395164505       -1.7743846788
 H        -7.2382136943        7.4353726376       -4.4090135147
 H        -8.9590762518        8.0822088782       -4.6573491854
 H        -8.2763348654        6.7636513315       -5.7387692767
 Na      -10.0182157633        3.4482523452       -1.6403858328
