117

 C        -6.9197646563        4.6893996043       -4.9549296539
 C        -8.0069605339        4.9585721576       -3.9075543193
 O        -8.3296526207        4.0840933622       -3.0372702412
 C        -8.8558549358        6.2931296625       -3.9339475039
 C       -10.4279646920        5.8257352948       -4.2836792492
 O       -11.2471534172        5.6817738107       -3.3917919604
 C       -10.6961892410        5.5329252229       -5.7396902885
 C       -11.1914851352        4.1560234672       -6.0075264782
 C       -10.1610385680        2.9535192276       -6.3619522132
 O        -8.9884581393        3.0816945560       -6.6492018271
 C       -10.7049958082        1.5222956631       -6.0971040983
 C       -10.6705096321        1.3941598324       -4.4374049119
 O       -11.4320639192        2.1290541648       -3.8629031843
 C        -9.9348595745        0.3887762858       -3.7087703624
 C        -8.3948638418        0.5689303413       -3.7458855377
 C        -7.7080976634       -0.5910349118       -2.9799373247
 O        -8.2982402976       -1.7019937929       -2.9275399004
 C        -6.2318093342       -0.2960726504       -2.5520815400
 C        -6.2276186263        0.1217702739       -1.0464430707
 O        -5.7274498302        1.0887947920       -0.7120793920
 C        -6.8541826166       -0.8208936282       -0.0100404577
 C        -7.6281722703        0.0686799665        1.1157906999
 C        -8.8263254528        0.8299059865        0.5517888552
 O        -8.9278869718        1.3631292384       -0.5532065830
 C       -10.0638486949        0.7504793126        1.4953824742
 C       -11.2774021582        1.6303998480        0.9581041090
 O       -11.3354545850        1.6328447358       -0.2833291379
 C       -12.2656399888        2.3874015778        2.0160395125
 C       -12.9136722060        3.6147536497        1.3833433644
 C       -11.9045067185        4.8336387728        1.1846244774
 O       -10.7905770307        4.7158872623        0.5212384840
 C       -12.3899863144        6.1709445637        1.7784075016
 C       -12.0356179657        6.0668606699        3.3851190939
 O       -12.3442649047        4.9838491165        3.8819388214
 C       -11.5763900896        7.2298021333        4.2935906098
 C       -11.8371974932        7.0123847674        5.8372293807
 C       -10.6823130719        6.4290436867        6.5300346593
 O        -9.4773188190        6.5914361090        6.2054067535
 C       -11.0064900760        5.7112499783        7.8842806251
 C       -11.8107418064        6.7238927604        8.8444610172
 O       -11.9800857780        7.9020834262        8.5345643799
 C       -12.2803887441        6.0207808670       10.1118740400
 C       -11.6929147689        4.3063251464        7.5335022155
 C        -9.8275019536        5.5169347629        8.7327208437
 C       -11.6119071021        7.2963465867        1.1005238961
 C       -13.9807187017        6.2540520133        1.6165403086
 C       -10.5626057807       -0.8382496493        1.2636162394
 C        -9.7553932317        1.2445343467        2.9237783467
 C        -5.4334285619       -1.7599503759       -2.5320995520
 C        -5.3542724735        0.7012049540       -3.3259933273
 C       -12.1569244878        1.0578641641       -6.3858508879
 C        -9.6775373557        0.7358966823       -6.9375139465
 C        -8.6297591058        6.8435373223       -2.5153558948
 C        -8.2713302297        7.3217442489       -4.9823379716
 H        -7.4944481630        4.4805430342       -5.8129792154
 H        -6.4991032881        3.6523371633       -4.7525327664
 H        -6.1158375824        5.4485690342       -5.1977316223
 H        -9.9874143528        5.8393468636       -6.5423317873
 H       -11.6016587991        6.0725746999       -5.8151050552
 H       -12.0217263351        4.1399910626       -6.7997967794
 H       -11.6710386706        3.7484043753       -5.1029936740
 H       -10.0896551433       -0.5373183664       -4.2950434921
 H       -10.4889362845        0.3084871720       -2.7079847047
 H        -8.0350373974        1.5202941192       -3.2259368575
 H        -8.0410892410        0.5009978800       -4.7554573001
 H        -6.0218066286       -1.3368021009        0.4769103073
 H        -7.6364728186       -1.4595911170       -0.4767899725
 H        -6.8658468405        0.8850414506        1.3502328606
 H        -7.8009193187       -0.4955698406        2.0650854466
 H       -11.5565105698        2.7478646670        2.8440283250
 H       -12.9745917136        1.6330572918        2.4593743542
 H       -13.7269382280        3.8692271839        2.0304655567
 H       -13.4263319336        3.3219275582        0.4761013252
 H       -12.0796159039        8.1562660286        4.0161841088
 H       -10.4364017012        7.3840392247        4.1715818238
 H       -12.7352252883        6.4857481100        5.9803040952
 H       -11.9215213094        7.9676510193        6.3037279471
 H       -12.0504960295        4.9742513326       10.2330733259
 H       -13.3697965439        6.1514472492       10.0608837115
 H       -11.9201944519        6.7720512681       10.9523124266
 H       -10.8832705698        3.5780978705        7.4065436353
 H       -12.1691516660        4.3105324404        6.5744300123
 H       -12.4129328576        3.9706221887        8.2511778536
 H       -10.0047945487        6.1937732296        9.5306374724
 H        -8.9069787896        5.6271403491        8.2001565022
 H        -9.7833563892        4.4847431130        9.2014753750
 H       -11.4860819212        7.2908559120        0.0747583418
 H       -10.5895612773        7.2736301195        1.4215383052
 H       -12.0023343518        8.2890274132        1.3571064608
 H       -14.4122342464        6.2745256865        2.6674397589
 H       -14.4952499755        5.4610409749        1.0540734645
 H       -14.2174607631        7.2112139805        1.0628469613
 H        -9.6256275736       -1.4877472940        1.5520732542
 H       -10.9875919114       -1.0923916197        0.3336402616
 H       -11.2426968656       -1.0533447620        2.1669174316
 H       -10.6365822708        1.0137419775        3.4472240543
 H        -9.6350402332        2.3108838748        2.8209500379
 H        -8.9633390904        0.6414950876        3.2007235944
 H        -4.6261398865       -1.7002006190       -1.8296581687
 H        -5.1680338173       -1.8670573777       -3.5933505210
 H        -6.1048905089       -2.5675901029       -2.0482324303
 H        -5.7283705776        1.6383691660       -3.1347592715
 H        -5.0847381140        0.3484611554       -4.3165746249
 H        -4.3074965978        0.7622657274       -2.8938981904
 H       -12.7970714288        1.6930651824       -5.7196818810
 H       -12.2457257491        0.0110329729       -6.0325883859
 H       -12.3183346981        1.2438609547       -7.4912875561
 H        -9.9015154986        1.0590910559       -7.8939647853
 H        -9.7043879613       -0.2640615096       -6.6978135686
 H        -8.6647514735        1.0239465292       -6.6493917659
 H        -8.6879681177        7.9664670744       -2.4818208126
 H        -7.8393194638        6.6283604116       -1.9351723277
 H        -9.5439804275        6.4813906209       -1.8701613143
 H        -7.3667239838        7.6602342666       -4.5205962630
 H        -8.8419798540        8.1813931019       -4.9465606917
 H        -8.2308911751        6.9114615227       -6.0019124117
 Na      -10.3631124219        3.3884745135       -1.6144190501
