117

 C        -6.8414728837        4.7122204059       -4.9976043564
 C        -7.9935007470        4.9035351437       -4.0039142875
 O        -8.2655917663        4.1305777859       -3.1223900414
 C        -8.7693352443        6.2683247746       -4.0066854460
 C       -10.1959727433        5.7771363933       -4.3665142226
 O       -10.9590429608        5.5542341908       -3.4895920540
 C       -10.6082381479        5.4528117384       -5.8679253580
 C       -11.3514683800        4.0647944888       -6.0543625872
 C       -10.2492652316        2.8796705395       -6.2888011773
 O        -9.1234890546        3.2140227229       -6.6785589708
 C       -10.7051149679        1.4837095372       -6.0424785229
 C       -10.6555179403        1.4074584155       -4.4286246223
 O       -11.3846903437        2.1623957510       -3.8310951364
 C        -9.8190759926        0.3150750766       -3.7907863928
 C        -8.3049656722        0.5741351475       -3.6077970355
 C        -7.6725793568       -0.7113113275       -2.9272780907
 O        -8.4188137343       -1.6431449671       -2.7256332389
 C        -6.1307546396       -0.4083321319       -2.4543023492
 C        -6.2695344591        0.0484227291       -0.8343944151
 O        -5.9208386171        1.1576337479       -0.5632850832
 C        -6.9166597620       -0.9369862801        0.0497542959
 C        -7.7115715398       -0.0157688392        1.0606972894
 C        -8.8286326836        0.7448448507        0.5576308749
 O        -8.8182286035        1.3592745875       -0.5784655645
 C       -10.2286880051        0.7100766036        1.5675557993
 C       -11.3833938100        1.5677259395        0.9042505930
 O       -11.7702077658        1.5243182810       -0.2738889668
 C       -12.1921365856        2.4152349586        1.7945913955
 C       -12.7767322302        3.6512630691        1.2112908738
 C       -11.8286737471        4.8365090754        1.2057766614
 O       -10.8053510964        4.6929824191        0.6103038697
 C       -12.1897146492        6.2760547736        1.9351502329
 C       -12.0294906746        6.0620962875        3.4112729818
 O       -12.2445015291        4.9491509221        3.8850466427
 C       -11.5172200398        7.2832061198        4.1991273017
 C       -11.8024706948        7.1705324562        5.7812804781
 C       -10.6400835134        6.4597770971        6.4937976550
 O        -9.5245568399        6.4261435235        6.0180150374
 C       -10.9591561507        5.7736460605        7.9648217846
 C       -11.9971816780        6.7459662442        8.8084051646
 O       -11.8869936524        7.9073217969        8.5563418007
 C       -12.4434605949        6.2408040151       10.1041727970
 C       -11.7113134228        4.4943298100        7.4802754157
 C        -9.6559391323        5.4521294372        8.8311290915
 C       -11.4684252689        7.4625612042        1.2793546633
 C       -13.6685817101        6.5671141257        1.5955685302
 C       -10.5378634528       -0.7153194002        1.4470985264
 C        -9.8828147291        1.1826389439        3.0509205574
 C        -5.3801080160       -1.8318496462       -2.6556551073
 C        -5.4172414021        0.6976411129       -3.1220810644
 C       -12.1690814966        1.3114455284       -6.5124259005
 C        -9.7459606730        0.3965020451       -6.8534683742
 C        -8.7703177833        6.8944920811       -2.6149873981
 C        -8.3009036508        7.3346477911       -5.1004403403
 H        -7.1769798517        4.3436402472       -5.9839577002
 H        -6.1354559980        4.0193680726       -4.6787279033
 H        -6.3433332837        5.6784780019       -5.0995458230
 H        -9.7805194291        5.3956121297       -6.5844808598
 H       -11.3391870346        6.2498115342       -6.1765883441
 H       -12.0088672369        4.0705016642       -6.8928051448
 H       -11.9120395725        3.7766882301       -5.1393703543
 H        -9.9988311556       -0.7298681285       -4.1500295795
 H       -10.3035216723        0.3979866814       -2.8127987693
 H        -8.2036395066        1.4989767155       -2.9755969797
 H        -7.6866876558        0.6256730101       -4.5447985381
 H        -6.1692348334       -1.5010864216        0.6146303319
 H        -7.5828983484       -1.5612254273       -0.5282640851
 H        -6.9511592413        0.6723321317        1.4553153167
 H        -8.0627812145       -0.6057329568        1.9240488253
 H       -11.6936036745        2.6089936367        2.7251048858
 H       -13.0903677437        1.6739981165        1.9938982407
 H       -13.6858505706        3.7440585439        1.7738939202
 H       -13.1276807897        3.4233151093        0.1884096752
 H       -11.7724798878        8.2756761203        3.8566329861
 H       -10.4101571843        7.1199359290        4.0021114273
 H       -12.7789550731        6.6680800390        5.8469050401
 H       -11.8838621942        8.1327320591        6.2023545268
 H       -12.0475975111        5.1299168846       10.3164865494
 H       -13.5996600290        6.0907440576        9.8844701950
 H       -12.3442449673        6.9729913953       10.8127577619
 H       -10.9834483387        3.7230044458        7.2594541364
 H       -12.3740817301        4.4567313361        6.6022117873
 H       -12.2905189262        4.2015072256        8.3415407666
 H        -9.8088941882        6.0091079166        9.7036099854
 H        -8.7826405720        5.6771060193        8.2223082283
 H        -9.5328641741        4.4565654202        9.1498076856
 H       -11.7105941704        7.5817821492        0.0997883240
 H       -10.3204278722        7.5343064946        1.2708491955
 H       -11.8087291730        8.4070841617        1.6505197029
 H       -14.2259144587        6.3467657105        2.5540431213
 H       -14.0856120071        6.0489357557        0.7848634117
 H       -13.7684020091        7.6468437346        1.3394204481
 H        -9.8605788493       -1.3555657418        2.0625393481
 H       -10.5482129813       -1.0334476254        0.3123219853
 H       -11.5906960298       -0.9268392856        1.8822555188
 H       -10.7726090231        0.8066360707        3.5202006968
 H        -9.7377842036        2.2192339480        3.0763269909
 H        -9.0037893699        0.4704651591        3.3136028314
 H        -4.6265897193       -1.8487058444       -1.9257299693
 H        -4.9736597064       -1.7397792563       -3.7229592107
 H        -6.0311365994       -2.7059191255       -2.4047957526
 H        -6.2375403244        1.3762522175       -3.2382914360
 H        -4.8264585698        0.3820593677       -3.9618774165
 H        -4.6627626139        1.2775209219       -2.5902918281
 H       -12.7159884509        2.1889614923       -6.4707026632
 H       -12.6978757221        0.6092478281       -5.8128951991
 H       -12.0146347739        0.9645831383       -7.5250406434
 H        -9.9715868308        0.7337199578       -7.9342773970
 H       -10.0026726938       -0.6168216809       -6.6381446110
 H        -8.7285231190        0.4961548847       -6.5527980821
 H        -9.2444032585        7.8177377072       -2.4151809409
 H        -7.6922372129        7.0654312844       -2.3262105106
 H        -9.0500123774        6.1940077965       -1.8669475872
 H        -7.4197885523        7.9339164944       -4.8465723798
 H        -9.0336616408        8.1345901474       -5.0311081317
 H        -8.4253996453        6.8168369183       -6.0702699586
 Na      -10.5922357353        3.3185124507       -1.6241289748
