117

 C        -6.2409814722        4.8476502097       -4.6154909264
 C        -7.6200415282        4.8071653843       -3.9369137678
 O        -7.8838637845        4.0139575381       -3.0961695594
 C        -8.7395873648        5.8301212789       -4.2394350988
 C       -10.0674817827        5.1689029053       -4.4911041659
 O       -10.6560690864        4.6340022254       -3.5181153314
 C       -10.6537359445        5.2549824355       -5.9158505151
 C       -11.3794844776        4.0613152363       -6.4625799660
 C       -10.4437803338        2.8767500207       -6.4740189589
 O        -9.2738254929        3.0350520428       -6.6039177478
 C       -10.9327103503        1.3672782101       -5.9679872438
 C       -10.6188388730        1.4205373481       -4.3904198863
 O       -11.2547731975        2.1918987445       -3.6171785403
 C        -9.8220432445        0.3382601693       -3.6922397744
 C        -8.3756269034        0.6665425248       -3.4563571792
 C        -7.7514927030       -0.5317925893       -2.7830452227
 O        -8.3285227966       -1.5758338041       -2.6248281291
 C        -6.4746141341       -0.2974117502       -2.0221930361
 C        -6.5012182261        0.1425856423       -0.5400136805
 O        -5.8452053774        1.1282747306       -0.1713962262
 C        -7.2573534390       -0.7804951105        0.4569078819
 C        -8.3718162484       -0.1783291448        1.4223282769
 C        -9.4490443371        0.6778119134        0.6412390150
 O        -8.9328953935        1.2708317706       -0.3114165918
 C       -10.8875145696        0.7105738481        1.6234899559
 C       -11.7918792478        1.8356082286        0.9059669103
 O       -11.8963241335        1.8442622533       -0.2651623663
 C       -12.5131209898        2.9439188074        1.7855500339
 C       -12.7857269090        4.2772346514        0.9946231267
 C       -11.5879592770        5.0459372651        0.7097747900
 O       -10.8902848306        4.9623947570       -0.2523484826
 C       -11.4099088092        6.3112718779        1.6420962770
 C       -11.5838117315        6.1957385704        3.1808560404
 O       -11.7809904409        5.1020604438        3.7099583253
 C       -11.1715772005        7.3421362003        4.0627084549
 C       -11.6564707371        7.2878859490        5.5025751689
 C       -10.6946018231        6.3297783981        6.4022987503
 O        -9.6995057723        5.8551502461        5.8643043277
 C       -11.0398464088        5.8627100656        7.8581169042
 C       -11.8523389492        7.0377765524        8.5479869791
 O       -11.4618881952        8.1967552292        8.3414339972
 C       -12.7679022182        6.7829943253        9.7839527195
 C       -11.8152147068        4.4433508860        7.6074480423
 C        -9.8362444342        5.6851570696        8.7703286376
 C       -10.0361326545        6.9715885585        1.3444268025
 C       -12.6152852753        7.3172335400        1.2400659607
 C       -11.6079002277       -0.6969261031        1.6055463532
 C       -10.4958272066        0.9904687884        3.1945844050
 C        -5.7920267740       -1.7130216244       -1.9453408084
 C        -5.6840036642        0.6964127598       -2.9702779181
 C       -12.4468863747        1.0177490009       -5.9976762312
 C       -10.2489351316        0.1908812756       -6.7055640643
 C        -8.8408366537        6.5937352434       -2.9861934600
 C        -8.3415441521        6.7502398088       -5.3594827775
 H        -6.2883749809        4.9032838918       -5.6710902788
 H        -5.7797115708        3.9017350936       -4.3975333875
 H        -5.7145827935        5.5567889531       -4.0571825569
 H        -9.8979837947        5.5860644061       -6.6417605994
 H       -11.3939232356        6.1429582338       -5.8533492566
 H       -11.7413349919        4.2029659156       -7.4404966306
 H       -12.1198325815        3.7864317129       -5.7314449656
 H       -10.0339901362       -0.6346276514       -4.0532583517
 H       -10.3709309852        0.1648231828       -2.7898875151
 H        -8.3140634383        1.5228555046       -2.7910299398
 H        -7.7691294656        0.8758314671       -4.4240437191
 H        -6.5033089646       -1.2108641478        1.1093227323
 H        -7.6705125191       -1.6798239591        0.0283868781
 H        -7.8986621691        0.3003147776        2.2860497014
 H        -8.8212906392       -1.0935254178        1.8877197563
 H       -11.9357703808        3.0600067482        2.7353047718
 H       -13.4554307456        2.4715976912        2.0786504967
 H       -13.4638832034        4.9395728389        1.6029058855
 H       -13.2021892104        3.9629147087        0.0295038971
 H       -11.3995838728        8.3226809869        3.5448780943
 H       -10.0871787398        7.3952193400        4.0556361525
 H       -12.6919343530        6.9249045681        5.5571302580
 H       -11.5842641606        8.3056389322        5.9524916655
 H       -12.0997529772        6.3534999927       10.5148659888
 H       -13.7433160641        6.2913139144        9.7118729260
 H       -12.9421579593        7.9162746137       10.1708765144
 H       -11.1124135390        3.6185561120        7.4327493109
 H       -12.3381518067        4.5409519661        6.6913292014
 H       -12.5030220055        4.0315781577        8.3703688740
 H        -9.1339033203        6.5232512666        8.5425557505
 H        -9.3311941749        4.7942632739        8.5267029664
 H       -10.0571673680        5.8521274290        9.7996463385
 H        -9.9302894863        6.9941482891        0.2590589924
 H        -9.1741349134        6.5314177254        1.9592115349
 H        -9.8722546305        8.1221193950        1.6352858330
 H       -12.3493482658        7.5500832157        0.2256487292
 H       -12.5738619105        8.2453680515        1.9414212321
 H       -13.5890893659        6.8473408018        1.2747599380
 H       -10.7493234081       -1.4880842483        1.8680675705
 H       -12.0356868941       -0.8995983254        0.6502086672
 H       -12.3844187835       -0.8749762722        2.4268441054
 H       -11.4992759143        0.6871758841        3.6142813775
 H       -10.0580620009        2.0750147563        3.2946012495
 H        -9.6637540243        0.3724953989        3.3826991929
 H        -4.7160424858       -1.5358350081       -1.5138513210
 H        -5.7259294390       -2.1020230300       -2.9364436098
 H        -6.5044495688       -2.3337179407       -1.4297184640
 H        -5.9497146464        1.7951861200       -2.8422047146
 H        -6.0567336420        0.5853682915       -4.0073620184
 H        -4.6125327452        0.6226278761       -2.9372189253
 H       -13.0992352824        1.6779740657       -6.6436369335
 H       -12.8730606779        1.3045968890       -5.0605697361
 H       -12.6552153573       -0.0128851115       -6.1584284795
 H       -10.6215817204        0.0644002375       -7.6818938594
 H       -10.6633620693       -0.7396773200       -6.2251166053
 H        -9.1166277042        0.2459530918       -6.6752199513
 H        -9.8470805204        6.8920944193       -2.7196596235
 H        -8.2549417846        7.4438714607       -3.0426727058
 H        -8.4592818523        6.0879087214       -2.0982317276
 H        -7.4866660814        7.4564883134       -5.2292728143
 H        -9.2876597036        7.3997378373       -5.3851855809
 H        -8.2151272490        6.3315781016       -6.3431312813
 Na       -9.9781216063        3.2460792061       -1.6447429998
