117

 C        -6.1508990975        4.7003603868       -4.3338653726
 C        -7.5335243554        4.6200390459       -3.7519104767
 O        -7.6911147241        3.7741319667       -2.8586376566
 C        -8.6481880071        5.6973210443       -4.1849672377
 C       -10.1445660520        5.1209990466       -4.5744641093
 O       -10.7836370258        4.6946159364       -3.6921229789
 C       -10.8276230118        5.2277835234       -5.9741294054
 C       -11.5797978009        3.8863560334       -6.0538752657
 C       -10.7109478920        2.6053633268       -6.1958346703
 O        -9.5288819300        2.7948430581       -6.4885057405
 C       -11.2476758360        1.2919991892       -5.8384282080
 C       -10.8942298866        1.2704100513       -4.2794608820
 O       -11.2024176233        2.1875400446       -3.6218628992
 C       -10.0169944456        0.1609485099       -3.6201733590
 C        -8.4928059160        0.5213941083       -3.4520105418
 C        -7.7737023751       -0.5531662098       -2.6226614482
 O        -8.3461968091       -1.6136976473       -2.6660484552
 C        -6.3619519118       -0.3101513655       -1.8746478578
 C        -6.5093664554        0.0743140206       -0.3796649899
 O        -6.1858478038        1.1887665017       -0.0120508400
 C        -7.4121168673       -0.7937998171        0.6122680083
 C        -8.3631567732       -0.0609741644        1.6008011363
 C        -9.4494967536        0.7788904536        0.8697415437
 O        -9.4032053799        1.1843668841       -0.2693285537
 C       -10.9625496839        0.9168893947        1.6652825350
 C       -11.6693762006        2.1432335931        0.9058086181
 O       -11.7979965118        2.2285838059       -0.3506062148
 C       -12.5075389169        3.0228900205        1.7101070713
 C       -12.8077857633        4.2841367525        1.0572268307
 C       -11.5209969443        5.1265545991        0.7040593504
 O       -10.7969656382        4.7634339777       -0.2414546999
 C       -11.1680664893        6.4751712462        1.4438182373
 C       -11.3573814780        6.2527033824        2.9642578634
 O       -11.6491600493        5.1679526864        3.3824428778
 C       -11.0282190097        7.3372235990        3.9871622296
 C       -11.5895530940        7.0694141108        5.3974092390
 C       -10.6138027138        6.1368302967        6.3247030906
 O        -9.6062053815        5.7637846679        5.8993729031
 C       -11.0636049375        5.8763477121        7.8273890046
 C       -11.8386777099        7.1579282537        8.3944483341
 O       -11.4743204097        8.2580559154        8.1613350904
 C       -12.7950996592        6.9407873496        9.5441928638
 C       -12.0800012043        4.7084927415        7.8141616063
 C        -9.6931340816        5.6383009466        8.6480637840
 C        -9.7014282105        6.8338921579        1.2043412382
 C       -11.9921075779        7.6684270408        0.8800828581
 C       -11.7313652462       -0.3771946978        1.0460438960
 C       -10.7546047335        1.1780623694        3.2506088856
 C        -5.5307035316       -1.7322653093       -1.7987521743
 C        -5.3764461596        0.6278716910       -2.4873614059
 C       -12.6656643501        1.2309974975       -6.2700406793
 C       -10.2811379477        0.2345645199       -6.5484310088
 C        -8.8958415837        6.5829303533       -2.9319534295
 C        -8.1599555006        6.5937818549       -5.3032052345
 H        -6.2519102273        5.2151079711       -5.3723713232
 H        -5.7718989917        3.7220875423       -4.6623074503
 H        -5.4684281532        5.1993415234       -3.5746076809
 H       -10.1166676795        5.3134528574       -6.8118325300
 H       -11.4401044128        6.1212930040       -6.0806846757
 H       -12.1069995347        3.9555903749       -7.0289076263
 H       -12.2221162507        3.6812392601       -5.1582368052
 H       -10.2326110199       -0.8215327028       -4.1323537481
 H       -10.6151760590       -0.0458054283       -2.7243596508
 H        -8.3763635684        1.4623933500       -2.8861805491
 H        -8.0854783319        0.7074220775       -4.4072219230
 H        -6.8723942993       -1.6441470218        1.0840353036
 H        -8.0522563107       -1.4120572211       -0.0677448104
 H        -7.7850586336        0.6597481378        2.1679195401
 H        -8.7292490664       -0.6610498537        2.3881883511
 H       -12.1512006653        3.1435219747        2.6769136828
 H       -13.4079991296        2.4016760128        1.8733781640
 H       -13.3599364744        4.8524931363        1.8039878065
 H       -13.2940362280        4.1072402907        0.0784271505
 H       -11.1501744439        8.2985393936        3.5932606508
 H        -9.9321828741        7.3459130956        4.0868873971
 H       -12.5590188938        6.5135484903        5.3757652121
 H       -11.7086358543        7.9753789350        5.9970905082
 H       -12.3601228846        6.2270456498       10.1831923577
 H       -13.6858705507        6.6220603257        9.1132789906
 H       -13.0024835558        7.8405453158       10.1276578990
 H       -11.5501776476        3.7638309669        7.9403559358
 H       -12.6972532361        4.5818350351        6.8764497581
 H       -12.7416211542        4.6218502616        8.6636519253
 H        -8.9351658131        6.1950065761        8.1210846048
 H        -9.2527146919        4.6296992077        8.4157309858
 H        -9.7054948009        5.8673974467        9.7101608642
 H        -9.5569956240        7.1353066047        0.1504370105
 H        -9.0099383432        6.1531018927        1.5725563053
 H        -9.4446145988        7.6578933694        1.7660071690
 H       -11.3513527540        8.4953621165        0.6621229520
 H       -12.6829139248        7.9281196772        1.5932211473
 H       -12.4633875671        7.3210744764       -0.0275883114
 H       -11.0544771812       -1.1172751864        0.9615247553
 H       -12.3070094931       -0.2224921988        0.0941650307
 H       -12.3866369946       -0.6935395796        1.7783591516
 H       -11.7246207457        1.3400648718        3.6433197990
 H        -9.9740496124        1.8293219961        3.3692758819
 H       -10.3644990233        0.1470545380        3.4664498737
 H        -4.7597028566       -1.6143523141       -1.1117269961
 H        -4.9949777395       -1.8789708014       -2.7272933443
 H        -6.2416811586       -2.5020802067       -1.7209675788
 H        -5.9532537966        1.4360053672       -2.9407511645
 H        -4.9089773591        0.3302057483       -3.3902517490
 H        -4.8296531025        1.1408680596       -1.6912272175
 H       -12.6607644738        0.9166080325       -7.2576536215
 H       -13.3294244609        2.1305628982       -6.3144592794
 H       -13.2870841075        0.5567359401       -5.6797908235
 H       -10.3366498470        0.4720108737       -7.6991727003
 H       -10.5257488823       -0.8309805458       -6.4348498041
 H        -9.2935845570        0.5166701187       -6.2948364896
 H        -9.3148136999        7.5187111433       -3.3567871078
 H        -7.9503865889        6.8094426452       -2.2147857228
 H        -9.7148603252        6.2516422381       -2.2921391163
 H        -7.2943472536        7.1064533699       -4.8744740442
 H        -8.8883073242        7.2858415251       -5.7142194698
 H        -7.7028731206        6.0977941752       -6.2021205554
 Na       -9.8098302036        3.2315560636       -1.9596326237
