117

 C       -13.1967700941       -0.2693961344       -9.0351901831
 C       -12.0188166173       -1.1480849056       -9.0333515235
 O       -11.9668570113       -2.2697895973       -9.5239739888
 C       -10.6816830018       -0.4727490283       -8.3771934621
 C       -10.8911822464        0.0417768052       -6.9635430176
 O       -11.7668882913        0.8382687040       -6.6141036692
 C       -10.4007991954       -0.7477603683       -5.7671219344
 C       -10.2178531104        0.1101350682       -4.4907156732
 C       -10.5406836019       -0.6780637405       -3.2960576402
 O       -11.2650072750       -1.6584400416       -3.2973364416
 C       -10.0599215438       -0.0306527243       -1.8558965511
 C       -10.9556435180        1.2174939130       -1.7005840452
 O       -10.6445748440        2.2189127264       -2.3094478293
 C       -12.1959059154        1.1937927217       -0.7855497852
 C       -12.9214548840        2.5190036007       -0.9331544281
 C       -12.0548010623        3.6209820027       -0.4076022982
 O       -11.2764232597        3.3746826781        0.4807178964
 C       -12.2888631439        5.1722477377       -0.7301183131
 C       -12.3348265667        5.9785054764        0.6634901919
 O       -11.3980868816        5.9788625465        1.4496089571
 C       -13.5072300230        6.8617454246        1.0161659025
 C       -13.4918756000        7.2154240030        2.5491864342
 C       -12.1293052786        7.9845531269        2.6918338181
 O       -11.7631125479        8.8845898165        1.9958695180
 C       -11.0579541667        7.5095031091        3.8935503130
 C        -9.6556927897        7.7399380998        3.2281087433
 O        -9.1959596755        6.8401147510        2.5649949489
 C        -8.7642294891        9.0058168122        3.6462047193
 C        -7.3407700239        8.6859562010        3.3109133772
 C        -6.7582985785        7.7871602013        4.3988904440
 O        -7.2021801714        7.8326653426        5.5363187354
 C        -5.5333224234        6.8897795120        4.0633590069
 C        -5.8837090334        5.3625894821        4.0536714075
 O        -5.4449971434        4.5615866536        3.2567710312
 C        -6.7637810872        4.8111573222        5.1669605609
 C        -7.0389998881        3.3894158356        4.9000628454
 C        -8.0092389827        3.0912392548        3.7424333809
 O        -8.9300817236        3.9143403908        3.5682438457
 C        -7.7321267840        1.9545362409        2.7403371313
 C        -7.1588055552        2.6160657204        1.4780446312
 O        -7.7087766990        3.5646934532        0.9306948785
 C        -5.8235600669        2.1285965111        0.8795951676
 C        -6.9706343935        0.7148033405        3.2919591559
 C        -9.1569421566        1.5044689608        2.3057508021
 C        -4.7440545557        7.3769554301        2.8627126837
 C        -4.4490733953        7.0292241540        5.2379014537
 C       -11.3637980893        8.4070076870        5.0911925883
 C       -11.3862351731        6.0719982475        4.5083174430
 C       -11.0848432456        5.5938220084       -1.6744310083
 C       -13.6011933782        5.3615694966       -1.4170948031
 C       -10.3572553631       -1.0828387476       -0.7754059012
 C        -8.5973632156        0.3885874646       -1.7773984289
 C        -9.5674416913       -1.4689524407       -8.5372903249
 C       -10.3579117561        0.8831692509       -9.2048319949
 H       -14.1031733146       -0.9290201337       -9.0922466644
 H       -13.3003336636        0.4345205739       -9.8458719919
 H       -13.4105683275        0.4360462880       -8.2072221002
 H        -9.5701323845       -1.4580504754       -6.0036382199
 H       -11.2999559559       -1.3688301747       -5.5498548019
 H       -10.8967591548        1.0395122822       -4.4639096404
 H        -9.1684374877        0.4491455520       -4.4679893311
 H       -11.9588188165        0.8464736450        0.2433776543
 H       -12.8378864046        0.3624295020       -1.0872905301
 H       -13.9434763375        2.6890562524       -0.5501295841
 H       -13.1199836140        2.7133195486       -1.9553144854
 H       -14.4640771198        6.5300772223        0.7097261958
 H       -13.3770161328        7.8842707676        0.5029253800
 H       -13.4860143573        6.3173206974        3.2296359798
 H       -14.3358002034        7.8775150233        2.7615895258
 H        -8.9324194917        9.0886273221        4.7499975633
 H        -9.1404592060        9.9209897422        3.1196948750
 H        -6.7887134998        9.6246449717        3.1757419073
 H        -7.5372146970        8.2410710881        2.3032115792
 H        -7.6676610080        5.4971505408        5.1354320578
 H        -6.3224558101        5.0576018675        6.1691635506
 H        -7.4951353567        2.8275065633        5.7913685729
 H        -6.0785761927        2.8573882715        4.7125037304
 H        -5.7225534363        1.0125203503        0.7222751699
 H        -5.0268402119        2.4201346599        1.5248152878
 H        -5.6083426277        2.6134609303       -0.0671608818
 H        -7.6604385148        0.1792565471        3.9014475036
 H        -6.1403412599        1.1563424807        3.9193270300
 H        -6.5310481460        0.0670985103        2.5293831222
 H        -9.5329371988        2.2161731668        1.6338773111
 H        -9.8273742599        1.4743451814        3.1451442403
 H        -9.1516975111        0.5021645195        1.7255283065
 H        -5.0595539307        8.4369036313        2.6661471666
 H        -4.7953722228        6.7981863454        1.9167658006
 H        -3.7161697814        7.4319838725        3.0465702245
 H        -3.6065369824        6.5471955311        4.7775126621
 H        -4.7840617802        6.5420586093        6.1506089588
 H        -4.2959609257        8.0613429116        5.5619116365
 H       -12.4087197214        8.3082824359        5.2891089182
 H       -11.2739469957        9.4850625859        4.7956624631
 H       -10.7267346698        8.2252738034        5.9214859987
 H       -11.5982762422        5.3228872691        3.6671859744
 H       -12.2573487265        6.1298376079        5.0888238764
 H       -10.4712718038        5.6570053267        4.9333340415
 H       -10.1297913566        5.1701390210       -1.4510873803
 H       -10.7895913678        6.6153002883       -1.5259467323
 H       -11.3316905467        5.5204834035       -2.7910676234
 H       -13.5475522237        4.8598055699       -2.4016422920
 H       -13.8880221079        6.3681833432       -1.6377776138
 H       -14.4855339543        4.9796623654       -0.8895627099
 H        -9.7628222929       -1.9939589478       -1.0887521459
 H       -11.4382481795       -1.3405967527       -0.8884471646
 H       -10.0162881248       -0.8603075948        0.2358693541
 H        -7.8955097789       -0.2462341906       -2.2585556180
 H        -8.4187840436        0.6371005456       -0.7276641134
 H        -8.5171012690        1.3858982786       -2.2964919355
 H        -9.8169558478       -2.4487599294       -8.2422742742
 H        -8.5956082369       -1.2407386341       -8.0070478272
 H        -9.4414919857       -1.5545905366       -9.6250866175
 H       -11.3041384787        1.3597899318       -9.3692056762
 H        -9.8008932920        0.6399232858      -10.1279476768
 H        -9.6461787741        1.4442146261       -8.5791193228
 Na       -9.5839315071        4.6078727351        1.4327709046
