117

 C        -6.2362533437        4.2079273100       -3.6075134585
 C        -7.7133944189        4.2067355959       -3.4900822498
 O        -8.2762466341        3.2384554310       -2.9857725649
 C        -8.4519251858        5.4933096476       -3.9175734186
 C       -10.0249133222        5.1778746964       -4.1187030774
 O       -10.8265716596        5.5344527871       -3.3084983686
 C       -10.4773520900        4.6168641241       -5.5270953356
 C       -11.2717142243        3.3950151871       -5.3585081276
 C       -10.5515271587        2.1969599812       -5.8670443969
 O        -9.4190253881        2.2883311391       -6.3477502602
 C       -11.3308582107        0.8206329896       -5.6683390458
 C       -10.9341970864        0.3834456584       -4.1486628238
 O       -11.1224764080        1.2434022137       -3.3825585164
 C       -10.0991641982       -0.7991273253       -3.6817457330
 C        -8.5929732581       -0.2162957306       -3.2321469758
 C        -7.8426240410       -0.9884689266       -2.1784656982
 O        -8.1804939577       -2.0788958496       -1.7846043749
 C        -6.5292648385       -0.2750820380       -1.4828698159
 C        -6.8655810295        0.3879659840       -0.0137893739
 O        -6.5828920501        1.5614164898        0.1388552976
 C        -7.9760965402       -0.3840170945        0.7950911952
 C        -9.3353668865        0.0215176548        1.3661194339
 C       -10.1819834601        1.0564572688        0.5676924998
 O        -9.7676893387        1.8873843216       -0.2043403702
 C       -11.7968167099        0.9872709911        0.9806642310
 C       -12.4794361658        2.3491008560        0.0513798933
 O       -13.1196462291        2.2714646269       -0.9710824758
 C       -12.3676087085        3.7588983653        0.7829971822
 C       -11.9101817082        4.9922603772       -0.0142438003
 C       -10.4072750623        5.3144984752        0.3089779448
 O        -9.4539518765        4.7114196590       -0.1857098878
 C       -10.0538568284        6.6061759606        1.2501438075
 C       -10.6151593330        6.3642505036        2.8225823236
 O       -11.1702289511        5.3309544351        3.1534110144
 C       -10.3950178463        7.5272558162        3.8232449796
 C       -11.1889609251        7.5224736624        5.1514942313
 C       -10.3990856722        6.4986428505        6.2914271600
 O        -9.4211409626        5.9769974928        5.9378447268
 C       -11.1336633163        6.2279788639        7.6188238816
 C       -11.6334286605        7.5940987778        8.2338799663
 O       -11.1286796337        8.6490680469        7.9213307510
 C       -12.7117650332        7.5148409569        9.2916513194
 C       -12.4573741128        5.4587424071        7.3425940324
 C       -10.0130124756        5.4071375341        8.4892718979
 C        -8.5131264942        6.5060251719        1.3251004148
 C       -10.5295952012        8.0218466205        0.7186780243
 C       -12.6220473079       -0.2523805173        0.3840920529
 C       -11.9039453151        1.3869451359        2.4463049206
 C        -5.5328800836       -1.6049849569       -1.1732741504
 C        -5.7605912873        0.7651684171       -2.2532446670
 C       -12.8578478818        0.9774453602       -5.6958005706
 C       -10.7971465705       -0.3152553276       -6.5935492703
 C        -8.3761293320        6.4759756023       -2.7404907784
 C        -7.8874733428        6.1746437412       -5.1731088933
 H        -5.7982358847        3.1901220470       -3.4935820391
 H        -5.9257851869        4.8275433492       -2.8448377691
 H        -5.9931574413        4.4610637558       -4.6159993591
 H        -9.6011281137        4.4504368451       -6.2291314859
 H       -10.9462039965        5.4559934867       -6.0128859884
 H       -12.1293616979        3.3384335707       -6.0542148684
 H       -11.6212357586        3.0594150584       -4.4083665198
 H       -10.0959171047       -1.6157777352       -4.3592112916
 H       -10.5648712343       -1.0096936396       -2.7582356746
 H        -8.5807519947        0.8255065063       -2.7918218863
 H        -7.9065107852       -0.0235978714       -4.0693151037
 H        -7.4687049291       -0.9013460961        1.6089982038
 H        -8.0831813584       -1.2307315021        0.0922553000
 H        -9.3602170323        0.5453480881        2.3870157506
 H        -9.9124145725       -0.9181714375        1.5659506347
 H       -11.8169772269        3.6516150928        1.7008342701
 H       -13.4475382642        3.9708657176        1.0914883709
 H       -12.3657653716        5.9413015430        0.1639189953
 H       -11.8734539161        4.6025809906       -1.0426982317
 H       -10.7028486077        8.4488066724        3.2376146085
 H        -9.3169343805        7.8001361069        3.9895523280
 H       -12.1893859297        7.1911614361        5.0426356140
 H       -11.1208745698        8.5462794927        5.5463963141
 H       -12.4405826297        6.7504302876       10.0313321627
 H       -13.7730043116        7.3212525265        9.1099962283
 H       -12.4943636068        8.5124213465        9.9678328822
 H       -13.2985191088        6.1667381091        7.3232879473
 H       -12.7122768808        4.5806128972        7.9510158288
 H       -12.4944067537        4.9931842301        6.3891213100
 H        -9.0957847425        5.9775147097        8.2179885391
 H        -9.8190067912        4.3236379919        8.2058764997
 H       -10.1636710841        5.3947026807        9.6009464793
 H        -8.0220586210        6.2120228865        0.3615717762
 H        -8.1164455815        5.7217114272        2.0122364251
 H        -8.1020071350        7.6167710444        1.5485073986
 H       -10.5537581693        8.0478404473       -0.4114048559
 H        -9.7916934847        8.7427550665        1.0681780339
 H       -11.5751081246        8.3469124073        1.0807125594
 H       -12.0272181527       -1.1646487452        0.3241610039
 H       -12.8969225973       -0.0491128867       -0.7282708069
 H       -13.5250127918       -0.4548913571        1.0239660845
 H       -12.9368473535        1.8322378792        2.6157679340
 H       -11.2663700554        2.2855425004        2.5383649367
 H       -11.6480283987        0.4366151907        3.0627570729
 H        -4.8479697324       -1.4008309224       -0.3382365773
 H        -5.1088087119       -1.9053513287       -2.2066522119
 H        -6.2412832503       -2.3637488786       -0.8169207245
 H        -6.6165192717        1.4648219890       -2.3826284759
 H        -5.4501008278        0.5887675269       -3.2696324308
 H        -4.9173188950        1.3547963904       -1.8414599504
 H       -13.2821764390        0.9109908160       -6.6449737693
 H       -13.2580657267        1.7807948516       -5.0131175459
 H       -13.3189136156        0.0591312900       -5.2646293749
 H       -10.6022305348       -0.1042935362       -7.6795084230
 H       -11.4156684932       -1.2271166717       -6.5533523939
 H        -9.9058875794       -0.7039723225       -6.2528061352
 H        -8.6169331564        7.5034954139       -2.9089728812
 H        -7.3114144102        6.6643561341       -2.4043906013
 H        -9.0203980657        6.0529396370       -2.0702226295
 H        -7.0534654478        6.8075627832       -5.0896728683
 H        -8.5683352525        6.8924749470       -5.5687763349
 H        -7.6796868928        5.4492939419       -5.9122697203
 Na      -10.4549515686        3.3989049380       -1.7376157818
