117

 C        -6.2093939244        4.0623571351       -3.5607314435
 C        -7.7419385390        4.2178670676       -3.3370905988
 O        -8.3303021675        3.2292214597       -3.0055560820
 C        -8.3142105777        5.5414149700       -3.8427330847
 C        -9.9191742281        5.1851900351       -4.0433173628
 O       -10.8538265841        5.3225538070       -3.2185694358
 C       -10.3165471502        4.5096308069       -5.4320392955
 C       -11.4146735707        3.3628683615       -5.4271989575
 C       -10.7641705652        1.9065516947       -5.7626889870
 O        -9.6075289955        1.8988840963       -6.1256647579
 C       -11.3702816527        0.5298043225       -5.5924333099
 C       -10.9167893172        0.3029939538       -4.0743869380
 O       -11.2226634398        1.1812823461       -3.1941361493
 C        -9.8404664974       -0.7190558405       -3.6409560690
 C        -8.5394573689       -0.1972439458       -3.2161717323
 C        -7.8362251186       -1.1126015461       -2.0388066862
 O        -8.4372005724       -2.0663531282       -1.5600943805
 C        -6.7396962846       -0.4028004158       -1.3657650569
 C        -7.3809867330        0.3381970947       -0.1032045695
 O        -7.0019088216        1.3636832715        0.2791071834
 C        -8.4169980080       -0.4488001139        0.8785454747
 C        -9.4946184261        0.4985327042        1.4579815606
 C       -10.4770968800        1.1331657143        0.4265818547
 O        -9.9435923136        1.7112499673       -0.5287341950
 C       -11.9898512864        1.1244863694        0.8167300964
 C       -12.4729939851        2.6167549944       -0.0147537585
 O       -12.8298048512        2.5515719119       -1.1780717216
 C       -12.2633686928        3.9777767730        0.8608571122
 C       -11.7571413166        5.0915904508       -0.0233189091
 C       -10.2158088516        5.3490586388        0.3960724757
 O        -9.3907378094        4.6077027741       -0.1043130922
 C        -9.6983438288        6.5780043200        1.2601308752
 C       -10.3137262226        6.4197689129        2.7276057616
 O       -11.0711525461        5.5416451658        2.9792357638
 C       -10.1948636120        7.6266297901        3.6891984753
 C       -11.0273191974        7.4934194050        5.0248546238
 C       -10.3506803889        6.6012039661        6.0780990280
 O        -9.1997054036        6.1530671761        5.9791246372
 C       -11.2125335439        6.3562984793        7.4301865025
 C       -11.6845435330        7.8455097964        8.2198849345
 O       -10.9764085454        8.8044525169        8.0957836044
 C       -12.4774016057        7.7115998920        9.5045535473
 C       -12.4756613588        5.5877053971        7.0485343037
 C       -10.3735271946        5.4316678523        8.4561576894
 C        -8.1377893529        6.5616126433        1.5097897723
 C       -10.1541295257        7.8823782606        0.3816644844
 C       -12.8699637326        0.0616704900        0.0953362319
 C       -12.3070276815        1.0764834994        2.4526417199
 C        -5.5779881340       -1.2086900041       -0.6694323770
 C        -5.9718219832        0.6109271610       -2.3438656721
 C       -12.9192343945        0.2543317833       -5.6071616375
 C       -10.7801618497       -0.3101839934       -6.6511461208
 C        -8.1846046821        6.5052068664       -2.5369263461
 C        -7.6726366446        6.1183076366       -5.1706476781
 H        -5.8557343057        3.3795710379       -2.8435007466
 H        -5.6876334990        5.0578080034       -3.4465850464
 H        -6.0195800953        3.3857821738       -4.4093843847
 H        -9.4394716812        4.4833905078       -6.0356742461
 H       -10.8780135256        5.3460376399       -5.9485260999
 H       -12.1249013180        3.6572116403       -6.1937580740
 H       -11.9700039090        3.2390553806       -4.4809589090
 H        -9.5021031161       -1.3422343891       -4.5058606025
 H       -10.3769299150       -1.3079688648       -2.8118348732
 H        -8.4264000685        0.7748239711       -2.8057084305
 H        -7.9201202087       -0.1236479778       -4.1414273891
 H        -7.6583593988       -0.7618697377        1.6105782139
 H        -8.7415826929       -1.3471219998        0.3667118225
 H        -9.2247708791        1.3038898437        2.0867315296
 H       -10.2270641512       -0.1256586889        1.9508994619
 H       -11.5099346186        3.7737266683        1.6381997263
 H       -13.1358622944        4.3264779310        1.2820570233
 H       -12.1492466884        6.1114145734        0.2915369919
 H       -11.8206316088        4.9941294773       -1.1617941894
 H       -10.2637354299        8.5592450646        3.1702527977
 H        -9.1656136232        7.6720357870        4.0141266112
 H       -11.9818502907        6.8696565497        4.8547161140
 H       -11.2122559254        8.4393892912        5.5670159838
 H       -12.6874211364        6.7006900336        9.7821446059
 H       -13.4894280513        7.9999109366        9.4013984627
 H       -12.0027768973        8.3139852392       10.2085094879
 H       -13.3093894914        6.2226607728        7.2727577558
 H       -12.6586970106        4.6545613086        7.4834748109
 H       -12.5271562157        5.2810542989        5.9835292515
 H        -9.4206811207        5.7662456050        8.8115566881
 H       -10.3365578516        4.4888169961        8.0251832943
 H       -11.0261312502        5.2438998465        9.3150414122
 H        -7.4204529630        6.9369903658        0.7130483262
 H        -7.9350900673        5.5114908524        1.6003886470
 H        -7.8843500309        7.0519940523        2.3393374021
 H        -9.2696886388        8.4464545275        0.0270566302
 H       -10.7403643178        8.5712925648        0.9598233825
 H       -10.6992525583        7.5836099252       -0.5135829279
 H       -12.3128955019       -0.7205789905       -0.4237344990
 H       -13.6797206275        0.4155462737       -0.5615033373
 H       -13.3591500095       -0.4087422585        0.9346972647
 H       -13.3055409209        1.4397393748        2.4741602910
 H       -11.6720248776        1.8003743672        2.9831056058
 H       -12.1802726577       -0.0065139802        2.6478080172
 H        -5.0693587391       -0.5190727977       -0.0681523767
 H        -5.0314876163       -1.7164968131       -1.3963839663
 H        -6.1013402345       -1.7832622971        0.1082621524
 H        -6.4577299076        1.2032780317       -3.1080840434
 H        -5.0868758105        0.1902804788       -2.8750744297
 H        -5.3310547553        1.2570878388       -1.7401397006
 H       -13.3159937217       -0.4704633471       -6.3867538116
 H       -13.4395911375        1.1896245591       -5.6740790975
 H       -13.2498695407       -0.1928669173       -4.6451831990
 H       -10.8715763063        0.1065655011       -7.6763054484
 H       -11.2196470080       -1.3007325508       -6.7380934187
 H        -9.6551850155       -0.6046832894       -6.5556464987
 H        -8.2755293605        7.6040387215       -2.8063391558
 H        -7.1156565375        6.4597091817       -2.2707222384
 H        -8.7967588036        6.1321400830       -1.6112250580
 H        -6.5704015263        6.2739037377       -5.1414351299
 H        -7.8864915292        7.1223917767       -5.4936841597
 H        -7.7746959894        5.2789798106       -5.9142162895
 Na      -10.2725565817        3.3577447758       -2.1532743408
