117

 C        -5.9950568352        4.0939027338       -3.5635857228
 C        -7.5583543962        3.9914227027       -3.5681867305
 O        -8.1235286495        3.0101717480       -3.0844074849
 C        -8.3906843871        5.3760125378       -3.9388442992
 C        -9.7909596251        4.9063850511       -4.2202048317
 O       -10.5140179142        4.9555383752       -3.2522676846
 C       -10.3651170724        4.3546491090       -5.6018592612
 C       -11.2473680412        3.1523095318       -5.3178549598
 C       -10.4562605332        1.8066742046       -5.6669016724
 O        -9.4440134424        1.8561367502       -6.3172868743
 C       -11.3565520792        0.4090364560       -5.4256609078
 C       -10.8144540484        0.1527807734       -3.9929691939
 O       -11.3212448926        0.8059913125       -3.0905143116
 C        -9.9018055636       -0.9977237962       -3.4921444513
 C        -8.5139814654       -0.3920270956       -3.1373954784
 C        -7.9780614141       -1.0824475361       -1.9278864677
 O        -8.3469782499       -2.2098904805       -1.6148869252
 C        -7.0192682765       -0.2801762047       -0.9722520757
 C        -7.7175355366        0.4677553086        0.1661183724
 O        -7.5396764251        1.6531796813        0.3146436917
 C        -8.7332686399       -0.3421277971        1.2095781295
 C        -9.7649471115        0.6948697199        1.6332674117
 C       -10.6091629860        1.1789661584        0.4105239328
 O       -10.0749736773        0.9720349403       -0.6794741069
 C       -12.1747467202        1.4974355515        0.4466905572
 C       -12.2913908741        2.9510620735        0.0960534014
 O       -12.3882312678        3.3341808766       -1.0706192337
 C       -12.2941430566        4.0543843895        1.0828875538
 C       -11.7157904128        5.3204220002        0.4271934253
 C       -10.2356951346        5.3688019429        0.3755719106
 O        -9.5967426020        4.5696790672       -0.2535168105
 C        -9.4349940304        6.4862450071        1.2824781784
 C       -10.1110841691        6.4875288091        2.7469579498
 O       -11.0246619588        5.7342684533        3.0127274942
 C        -9.7811635594        7.6812142982        3.7058902650
 C       -10.7407881303        7.7040251259        4.9268585928
 C       -10.3216284871        6.8614472841        6.0384562988
 O        -9.1020299456        6.5685741509        6.0244807325
 C       -11.2625086874        6.4624095776        7.3266856347
 C       -11.3796172882        7.8231699054        8.0971807379
 O       -10.9104383371        8.8516384143        7.6863478579
 C       -12.1991653737        7.8188874649        9.4105044792
 C       -12.7367823803        6.0947058784        6.7799078077
 C       -10.5186466536        5.3454364889        8.1202776453
 C        -7.8507700508        6.1849919411        1.3807299445
 C        -9.6589078327        7.8761375465        0.6271424764
 C       -12.9013906239        0.6244266293       -0.5589962849
 C       -12.8174487953        1.3099954604        1.9901184225
 C        -6.3139839630       -1.5835066292       -0.3285246753
 C        -6.0339808728        0.6825021017       -1.6700941289
 C       -12.8929008841        0.6284599292       -5.4382088028
 C       -10.8875301129       -0.6100482942       -6.4491195921
 C        -8.2216512333        6.3385106490       -2.7695860061
 C        -7.7827605163        6.0494104828       -5.1878670611
 H        -5.6422916266        3.9614559982       -2.5988050225
 H        -5.6750277642        5.0188417292       -4.0823820987
 H        -5.7255690410        3.1279567244       -3.8858791115
 H        -9.5439678662        4.2275396813       -6.3104134466
 H       -10.8909614188        5.2910789573       -5.9671672985
 H       -12.1188243889        3.1666822041       -5.8951960196
 H       -11.5639404601        3.2440537417       -4.2771574106
 H        -9.8133728394       -1.8201665756       -4.2280855888
 H       -10.3294687099       -1.3847764535       -2.6329003384
 H        -8.5973662507        0.7115008685       -2.9166015288
 H        -7.6601652151       -0.4681549233       -3.8528962161
 H        -8.2457082130       -0.7510833367        2.1025149540
 H        -9.0821029996       -1.0662976747        0.5275487431
 H        -9.3712601350        1.5472148584        2.2550792272
 H       -10.5121701730        0.0784860285        2.1879495093
 H       -11.8173935122        3.8975949027        2.0383922553
 H       -13.3246192553        4.4397202367        1.1913825138
 H       -12.0658831921        6.2146397929        0.9203021616
 H       -11.9920779683        5.5307347381       -0.5517291926
 H        -9.7668017575        8.6567340480        3.2250310375
 H        -8.6715160460        7.5467576538        4.0021536323
 H       -11.6244107408        7.1202525111        4.4829205585
 H       -11.0323221948        8.6521271932        5.2949273969
 H       -13.1106602342        7.1332814447        9.3806552779
 H       -12.7677281026        8.7800646170        9.4711408898
 H       -11.5924933923        7.6858517016       10.2269974060
 H       -13.1696769942        6.8242800200        6.0904193032
 H       -13.5123162705        6.0237486720        7.5890202668
 H       -12.6572341097        5.1013000040        6.2625200854
 H        -9.8968525765        5.8485697517        8.9174916497
 H        -9.9902829138        4.6589212352        7.4210220597
 H       -11.1731059854        4.7852253312        8.8051208827
 H        -7.4033922373        6.5693354120        0.3377128949
 H        -7.7159114499        5.0626618965        1.6165370870
 H        -7.3581045307        6.7642759101        2.1665985387
 H        -9.9902699927        8.7940219397        1.1736314029
 H       -10.5412817044        7.7556387923       -0.0721253785
 H        -8.8459031527        8.0804612730       -0.0570555728
 H       -12.1254605348        0.2673039750       -1.3144209285
 H       -13.7358805238        1.2067822688       -0.9554379639
 H       -13.2659922601       -0.3716098729       -0.1602409370
 H       -13.8276588571        1.7788816690        1.7291774380
 H       -12.1605822661        2.0010287283        2.6590797132
 H       -12.7241890674        0.3235347505        2.4526535655
 H        -5.5303362230       -1.2372138257        0.3983534059
 H        -5.9444846983       -1.9605903140       -1.2689930305
 H        -7.0551661939       -2.3017269334        0.1667422360
 H        -6.3994155724        1.6968094347       -1.8104802534
 H        -5.5990050777        0.3754568410       -2.6538467177
 H        -5.1134029678        0.6349206485       -1.1742019731
 H       -13.2838321038        0.1048554418       -6.3835996197
 H       -13.2287313099        1.6307067589       -5.6032558281
 H       -13.2942372948        0.1650930007       -4.5498311400
 H       -11.2211115910       -0.3858222915       -7.4092474570
 H       -11.2495691327       -1.6264186042       -6.4796579741
 H        -9.7647819959       -0.6533542399       -6.5850511259
 H        -8.9898568988        7.0929904197       -2.9629989589
 H        -7.3147808444        6.8288364005       -2.8340447721
 H        -8.2623821889        5.9169585698       -1.7534462174
 H        -6.9290391503        6.6436671671       -4.9817653420
 H        -8.5051395003        6.8284975230       -5.5021387103
 H        -7.5610328429        5.4261470440       -6.0084087882
 Na      -10.4575163686        2.8922444673       -2.0434716336
