117

 C       -13.2670657071       -0.3236787213       -8.9549367958
 C       -12.0099428018       -1.0940157530       -9.0323712651
 O       -11.9574857230       -2.2538452419       -9.4928649017
 C       -10.6217191548       -0.4027064134       -8.4310715650
 C       -11.0980175759       -0.0957745375       -6.9137236157
 O       -11.7685002998        0.8854207171       -6.6944608378
 C       -10.3035073793       -0.8819661255       -5.6518278604
 C       -10.2994368206        0.1257427111       -4.4137893836
 C       -10.5259084666       -0.6362883507       -3.1216583384
 O       -10.9903305130       -1.7711102609       -3.1366079232
 C       -10.0921526045       -0.0497718652       -1.7468429690
 C       -10.9678283986        1.1957788831       -1.6268788709
 O       -10.6942887883        2.2098448736       -2.2654171673
 C       -12.2195361636        1.1964241162       -0.7714576069
 C       -13.0518625247        2.4507910362       -0.8622590429
 C       -12.1737114609        3.5518947846       -0.2143406103
 O       -11.3160244280        3.2482689497        0.5784180006
 C       -12.3928088860        5.0990552500       -0.6777751366
 C       -12.3442084596        5.9644774537        0.6302076362
 O       -11.3659205794        5.9540810967        1.3516155527
 C       -13.5468925818        6.7986867405        1.1235353181
 C       -13.3788826820        7.2711994583        2.5064481992
 C       -12.0302493124        8.0327079049        2.7093355678
 O       -11.9369841317        8.8958843846        1.8706975017
 C       -11.1396861987        7.6556831045        3.8631648535
 C        -9.6501108118        7.6133040981        3.3431777964
 O        -9.1393247745        6.8039508238        2.5743935019
 C        -8.8214878212        8.8435058586        3.4591666590
 C        -7.3705303631        8.5189716897        3.0761649218
 C        -6.6607160787        7.8191658159        4.3031192453
 O        -7.2455901341        7.8829310923        5.3884028970
 C        -5.3542156059        6.9757232225        4.0236051462
 C        -5.8602379514        5.4591922021        4.0415546746
 O        -5.5220246597        4.7025212444        3.1097398788
 C        -6.8018238482        4.8164653968        5.1780591788
 C        -6.8780674837        3.3754116578        4.9278712082
 C        -7.9117725527        3.2000286488        3.7272996492
 O        -8.8305185054        3.9455118405        3.5962354898
 C        -7.7229743978        2.0642176201        2.7244760975
 C        -7.0360847683        2.6874457914        1.4553670894
 O        -7.5975639271        3.5387651048        0.8200865863
 C        -5.8040617990        2.0709875829        0.8160454091
 C        -6.9568834683        0.8368046628        3.2629805979
 C        -9.2068254643        1.4613602041        2.2769359424
 C        -4.7829613033        7.3862846400        2.6753018956
 C        -4.3272597681        7.0667001113        5.1966173304
 C       -11.4281495784        8.6339261100        5.1064915548
 C       -11.5025681175        6.2360468287        4.4366268582
 C       -11.2542726347        5.5978126531       -1.6316475641
 C       -13.7598497580        5.2713677625       -1.3746419921
 C       -10.2182999960       -1.1889144934       -0.6582525150
 C        -8.5877198620        0.3526342464       -1.8382562074
 C        -9.4977257988       -1.4110202371       -8.4184940398
 C       -10.3088378479        0.9322474485       -9.1369796692
 H       -14.1645735655       -1.0554970345       -9.1215745631
 H       -13.4177037497        0.4865885048       -9.7625819657
 H       -13.5631040758        0.2875093665       -8.1239512200
 H        -9.3199164373       -1.1412920408       -6.0342253259
 H       -10.7997397010       -1.8364088792       -5.2683205565
 H       -11.1208304847        0.8296064192       -4.4577811223
 H        -9.3314398707        0.7455927407       -4.4688779218
 H       -12.1279894861        0.8933382480        0.2994278843
 H       -12.7596540332        0.3201155861       -1.0936342035
 H       -13.9773618950        2.3956463868       -0.1897973171
 H       -13.5591926827        2.7425446394       -1.7769524479
 H       -14.5160360244        6.3230243647        1.0973209203
 H       -13.6218136927        7.6819536518        0.4091932012
 H       -13.4897563842        6.3506965286        3.0994411324
 H       -14.1422128683        8.0027340580        2.8060911789
 H        -8.8797057902        9.1968178133        4.5411132125
 H        -9.3489601487        9.5755269620        2.7770409205
 H        -6.9198397060        9.5135952618        2.8771689883
 H        -7.5010000023        8.0018859927        2.0914066877
 H        -7.7515228393        5.3759346748        5.0692241047
 H        -6.3909849429        5.1817480258        6.1791532632
 H        -7.2523932062        2.8319549644        5.7594569358
 H        -5.9184749206        2.9244635701        4.7215257388
 H        -6.0108400516        0.9844756924        0.6366976341
 H        -4.8794432317        2.0734769861        1.4971233404
 H        -5.4876297470        2.5413250400       -0.1074093786
 H        -7.5658155046        0.3508891852        4.0792215499
 H        -5.9796256808        1.2534073612        3.6440466408
 H        -6.7382573835        0.1717732971        2.5064270302
 H        -9.8903564340        2.2173695569        1.8248573056
 H        -9.6797075927        0.9678205597        3.0548448253
 H        -9.0262769689        0.7136827576        1.5019931877
 H        -4.7129149500        8.4845246349        2.5951699612
 H        -5.4153282381        6.9987869228        1.8918962625
 H        -3.7761377790        6.9755079979        2.4019249173
 H        -3.5505351830        6.2259956691        5.0665118472
 H        -4.9617655994        7.0406933115        6.0956217143
 H        -3.9040011256        8.1214257515        5.2889229674
 H       -12.4725335356        8.6061578652        5.4362817119
 H       -11.2379324314        9.6881931431        4.7780585773
 H       -10.7038876284        8.3809574669        5.8930446112
 H       -11.4749277538        5.5701557914        3.6079611031
 H       -12.4788298997        6.1752697744        4.8628135439
 H       -10.6648479156        5.9036826292        4.9891329719
 H       -10.2727839452        5.2158991495       -1.4161117755
 H       -10.9697983378        6.6812690460       -1.4610013795
 H       -11.5364215652        5.5562204309       -2.6314398745
 H       -13.8868402068        4.5982607857       -2.2727955174
 H       -13.8497439540        6.2943562097       -1.7837520352
 H       -14.6484311662        5.1619791512       -0.7930804717
 H        -9.5429684848       -1.9962936574       -0.9028548924
 H       -11.2729709526       -1.5621926267       -0.6175118748
 H        -9.8761424522       -0.8222563391        0.2908211284
 H        -8.0986180254       -0.0778289441       -2.6833538702
 H        -8.1168297343        0.2807331007       -0.8690294019
 H        -8.5679505984        1.4368279560       -2.0222321920
 H        -9.8775446588       -2.3487769349       -8.0467894814
 H        -8.6670314745       -1.1778947168       -7.7706958553
 H        -9.1502431064       -1.6866848128       -9.4216348434
 H       -11.2553771868        1.5674562852       -9.1406476571
 H        -9.9626985194        0.7051772561      -10.1572849152
 H        -9.4541060408        1.3367162822       -8.6135226873
 Na       -9.6041819510        4.5779478572        1.4399955845
