117

 C        -5.6835345530        3.6603027299       -4.2641586379
 C        -7.2382474066        3.7903947560       -3.7298954082
 O        -7.6551352904        3.1512857831       -2.7136466929
 C        -8.1607220774        4.9320618789       -4.3701402615
 C        -9.5054280253        4.2528403638       -4.8383242498
 O       -10.2244060616        3.8928710797       -3.9701681211
 C       -10.0137064741        4.0265233161       -6.2948381023
 C       -11.0958204848        2.9246912653       -6.3673230512
 C       -10.3762602068        1.5194913396       -6.2936051994
 O        -9.2364822362        1.4070818552       -6.7120013417
 C       -11.0450094859        0.1982803981       -5.5283851060
 C       -10.4051190697        0.4359066247       -4.1003161098
 O       -10.6696608144        1.4792613946       -3.5040936660
 C        -9.7410929675       -0.6803682924       -3.4412869805
 C        -8.5438144761       -0.1290828749       -2.5266873956
 C        -8.4549619680       -1.0452807029       -1.3088392115
 O        -9.2434056220       -1.9814122160       -1.2145117210
 C        -7.5678070826       -0.6007408767       -0.0861747857
 C        -8.5433634390        0.4492370134        0.7133033948
 O        -8.5969906817        1.5615498790        0.1794250391
 C        -9.3637437520        0.2266966988        2.0721370107
 C       -10.9590412828        0.2170139378        1.8202354637
 C       -11.4209615778        0.8757746467        0.5745002114
 O       -10.8754673488        0.9456207932       -0.5209302069
 C       -12.9109961564        1.7914918852        0.6954205947
 C       -12.4077275194        3.1684514646        0.2963138735
 O       -12.2581084205        3.4003194588       -0.9447309208
 C       -12.5706446591        4.2706015057        1.2586739477
 C       -11.7635050632        5.5160761769        0.7580134823
 C       -10.1937097602        5.3366188863        0.6458470704
 O        -9.7315626715        4.5861148963       -0.1625347961
 C        -9.1357466401        6.2628824870        1.3792844205
 C        -9.5984415168        6.5257190129        2.9584836268
 O       -10.5903201199        6.0689688414        3.4075007187
 C        -8.8051743428        7.6912960445        3.6163575105
 C        -9.5099529683        8.2413185431        5.0139276765
 C        -9.7897115933        7.0689145957        5.9038303897
 O        -8.9054772314        6.2250720151        6.1096260649
 C       -11.2156437128        6.9143098426        6.7644657565
 C       -11.2900660952        8.3586595742        7.7550313129
 O       -11.3467036717        9.3968625695        7.1778377343
 C       -11.0790704803        8.0039241136        9.2053579310
 C       -12.3107634919        7.1936769898        5.6319820119
 C       -11.1486289505        5.6765840359        7.6637855386
 C        -7.6981563500        5.5524169476        1.5090777223
 C        -8.9221032497        7.5859146324        0.7583999177
 C       -13.9038367209        1.2991015284       -0.4036012056
 C       -13.5936379116        1.7436157358        2.2846347516
 C        -7.1577776067       -1.7748686956        0.8331694314
 C        -6.4561969840        0.3105405675       -0.6992138903
 C       -12.5487328950        0.2882904481       -5.3615691145
 C       -10.6398959799       -1.0444723544       -6.4400930294
 C        -8.4145733410        5.9396649158       -3.2242497165
 C        -7.5768095733        5.7082470925       -5.5232297603
 H        -5.2238230791        4.5377520939       -4.6114860593
 H        -5.7602536770        2.8095267551       -4.9906695931
 H        -5.2005454733        3.0891611768       -3.4606910507
 H        -9.1731269522        3.7640108159       -6.9391336560
 H       -10.4721879248        4.9834554286       -6.5121809978
 H       -11.5819099996        2.9895834054       -7.3520378906
 H       -11.8626680889        3.0264284937       -5.5476407467
 H        -9.3869866300       -1.5416015247       -4.1567841999
 H       -10.4397895443       -1.2474821376       -2.7968540186
 H        -8.7127294625        0.9196042383       -2.2170622825
 H        -7.6490887961       -0.1990005747       -3.1127746095
 H        -9.0389569900        0.9857082006        2.8755723029
 H        -9.1995379465       -0.7946157757        2.4329194988
 H       -11.3767947535        0.5307067403        2.7818283712
 H       -11.3548406510       -0.7576780862        1.6743558215
 H       -12.4446365571        4.1411049118        2.2953579467
 H       -13.6566653987        4.4967097999        1.1755634146
 H       -12.0460929956        6.4615594814        1.3566423508
 H       -12.0904632880        5.9491460719       -0.2291832629
 H        -8.6687426118        8.5321570994        2.9406468762
 H        -7.8322481953        7.3252232260        3.9069413839
 H       -10.4551259012        8.6668013541        4.5781938208
 H        -8.9390831890        8.9792833706        5.5254344343
 H       -11.4115192459        7.0497191846        9.6066260467
 H       -11.2777141713        8.8343409567        9.8505589037
 H        -9.9568498949        7.9378609934        9.2795707652
 H       -12.1384246435        8.1799133308        5.3063526287
 H       -13.2381587835        7.1908542903        6.2140231933
 H       -12.3720164221        6.5602382183        4.7722499196
 H       -10.5064201743        5.8863672729        8.5059729310
 H       -10.6660025851        4.8855495417        7.1667138777
 H       -12.1216309606        5.3946595415        8.0098301319
 H        -7.1358514156        5.8167146301        0.6441612969
 H        -7.8603385526        4.5696051973        1.5568933635
 H        -7.2170097253        5.9425630347        2.3380314079
 H        -8.8749813633        7.4512814405       -0.3524431686
 H        -7.9657873266        8.0453244731        1.0610810264
 H        -9.7677831922        8.2751364665        0.8778001901
 H       -13.3928365419        0.8801351899       -1.2202988846
 H       -14.5798796592        2.0893793303       -0.7692298008
 H       -14.5995413476        0.5414794390        0.0193377205
 H       -14.5560235324        2.2114532168        2.3719963368
 H       -12.8621354526        2.1940627937        2.8551072719
 H       -13.8166202719        0.6778675013        2.5292103240
 H        -6.7430373417       -1.2452086067        1.6601487670
 H        -6.3006651141       -2.2076469173        0.4367876932
 H        -7.9441178308       -2.5354685539        0.9123231976
 H        -6.7144651137        1.3468598245       -1.0142131661
 H        -6.0855861757       -0.1866500234       -1.6433820722
 H        -5.7233735419        0.4848070379        0.0194717971
 H       -12.9175385079       -0.3676804429       -4.4979012192
 H       -12.8477376818        0.0536287881       -6.3565624886
 H       -12.8110282455        1.3359276804       -5.1184446601
 H       -10.8466768989       -0.9867856065       -7.4794383766
 H       -10.9718425116       -1.9921053395       -6.0177055271
 H        -9.5322806447       -1.2820510467       -6.5484284462
 H        -9.2579997723        6.5709309354       -3.5987168525
 H        -7.4624518762        6.4732824062       -3.1717766258
 H        -8.6512220067        5.6313465165       -2.1218812918
 H        -6.9030463828        6.4156089277       -5.0088039449
 H        -8.4661377229        6.3230079137       -5.8808217695
 H        -7.1484473391        5.1730696584       -6.3865439907
 Na       -9.8773566098        3.0055465034       -1.8455479720
