117

 C        -6.1131177050        2.8607213360       -4.5834671736
 C        -7.2751521221        3.7206535762       -3.9568069632
 O        -7.8780043571        3.3512951395       -3.0092274035
 C        -7.8987459824        4.9641920786       -4.5993190782
 C        -9.3676361900        4.2600865352       -5.0486206099
 O       -10.2037613564        4.0241560935       -4.2006319694
 C        -9.4968984103        3.7321019612       -6.5176557103
 C       -10.6972785685        2.6394793020       -6.5799947965
 C       -10.0573981982        1.1695059900       -6.6329980348
 O        -9.0476052463        0.9809021545       -7.2355528509
 C       -10.6917305622       -0.0360286333       -5.8204655011
 C       -10.2236554116        0.2295590741       -4.2083412610
 O       -10.6164287293        1.2462947343       -3.6683202425
 C        -9.2873674092       -0.7625071497       -3.4602427809
 C        -8.4606551913       -0.2699087438       -2.0991710076
 C        -8.9139477180       -1.0445070838       -0.8981571926
 O        -9.8815995791       -1.7630547169       -0.7771523438
 C        -8.3189076742       -0.4931649265        0.6307600787
 C        -9.1220671632        0.7808734696        0.9418856100
 O        -9.0675610087        1.6800322869        0.1811880438
 C       -10.1634896466        0.7467646489        2.1027369416
 C       -11.3783359598        0.0273386522        1.6117646556
 C       -12.1813219621        0.8543720050        0.4741493616
 O       -11.6284182238        0.7128725673       -0.5920484014
 C       -13.2118809171        1.8901393548        0.9916611009
 C       -12.5045337030        3.3025574019        0.4203617745
 O       -12.2430160489        3.4269135770       -0.7279103349
 C       -12.1119504191        4.3640395526        1.4041381085
 C       -11.1430475962        5.5538163711        0.7285655688
 C        -9.6331934219        5.1921190671        0.7569975878
 O        -9.2677337608        4.3434595649       -0.0587660091
 C        -8.6782463011        6.3404019573        1.4143819451
 C        -9.2577201934        6.7722694813        2.9074950591
 O       -10.4712776309        6.6500497256        3.0100533056
 C        -8.4153105577        7.5524561271        3.8612597053
 C        -9.1855823153        7.9389372172        5.1259338458
 C        -9.7274674506        6.8653903866        5.9836971992
 O        -9.0107442422        6.0659927572        6.4886414508
 C       -11.2152071754        7.2802521414        6.5567103489
 C       -10.9428128817        8.5509081356        7.4396376509
 O       -11.3703023051        9.6888923520        7.1578586076
 C       -10.0935026230        8.3031596623        8.7030292218
 C       -12.2723562124        7.3620441002        5.3802460730
 C       -11.8925490926        6.2049277494        7.3993974774
 C        -7.2037607936        5.8334902319        1.4390036591
 C        -8.6853407087        7.5792815217        0.4257746279
 C       -14.4562197633        1.8026673769        0.1111271195
 C       -13.3438201210        2.0188894825        2.5551340957
 C        -8.1479315932       -1.6266808983        1.7774020332
 C        -6.9139988412        0.0790737478        0.2887917462
 C       -12.2877420527        0.1555583402       -5.6906624029
 C       -10.2978110265       -1.3462422723       -6.4190915669
 C        -8.0740881108        6.1247214063       -3.5855387003
 C        -7.2605949093        5.6099732325       -5.7758685105
 H        -5.3512955378        3.6839502576       -4.7606953289
 H        -6.4327080952        2.5185603510       -5.5391157040
 H        -5.9230835713        1.9901714750       -4.0052152745
 H        -8.5971169046        3.2203224553       -6.7675519431
 H        -9.7288064663        4.5559657597       -7.2033761369
 H       -11.2366649453        2.8422644688       -7.5356113208
 H       -11.3684110404        2.7237771362       -5.6816888070
 H        -8.7873898283       -1.3427619810       -4.2150699328
 H       -10.0024527465       -1.5238030193       -2.9558192936
 H        -8.8458545934        0.7530351902       -1.9462943193
 H        -7.3746678748       -0.1815940058       -2.2382891686
 H       -10.4359226904        1.7663657724        2.4257466745
 H        -9.7402708187        0.4686492317        3.0960695858
 H       -12.0664862912       -0.3448477443        2.3013123374
 H       -11.1194201977       -0.8998392554        1.1065608082
 H       -11.5607324086        4.0458098200        2.3092521411
 H       -13.0789534330        4.6881465867        1.7916035263
 H       -11.3394566279        6.6005808958        1.0435956176
 H       -11.4409326684        5.5346335791       -0.3801129984
 H        -8.2184441399        8.4546510066        3.3416425944
 H        -7.4884092448        7.1190317373        4.2764448162
 H        -9.8998962368        8.6646537263        4.8250537913
 H        -8.4658925511        8.4425776813        5.7671854806
 H       -10.4125732245        9.0115484493        9.5199580367
 H        -9.0603667616        8.5493290388        8.3279549094
 H       -10.1667963174        7.4043415797        9.2592153292
 H       -12.1289998823        8.3660332422        4.9376191144
 H       -13.2337278496        7.3060007719        5.8228389099
 H       -12.1104705727        6.6474491742        4.5643593614
 H       -11.0777589016        5.9146062977        8.0192520708
 H       -12.3404555699        5.3530147704        6.9099770047
 H       -12.6901897016        6.6691249625        8.0284218724
 H        -6.8696279783        5.3632893193        0.5777846229
 H        -7.0839581266        5.1300996231        2.2250598462
 H        -6.6637809750        6.7009263070        1.5789440555
 H        -8.4882395557        7.3321512985       -0.6340062508
 H        -7.8790477025        8.2770589131        0.7162058295
 H        -9.6857650639        8.1222845179        0.4833231667
 H       -14.2017150385        2.2863230203       -0.8809341072
 H       -15.3392990549        2.3202306377        0.3903330543
 H       -14.6893977511        0.7817845713       -0.0011628346
 H       -13.9969688102        2.8620696595        2.7047408463
 H       -12.4362881662        2.1776938093        3.2395775381
 H       -13.9198046014        1.2015424631        2.9057170985
 H        -8.1688662063       -1.2345041124        2.7608433935
 H        -7.3279135647       -2.2611094376        1.4571295712
 H        -9.0531062081       -2.1478010819        1.5797453987
 H        -7.0644687771        0.9316352243       -0.3320763871
 H        -6.3739516968       -0.6819526495       -0.3109618342
 H        -6.1974321035        0.2337252217        1.1755465278
 H       -12.7942883514       -0.7422753091       -5.3862693061
 H       -12.6553104386        0.4054217871       -6.7310605649
 H       -12.4687931552        0.9041558601       -4.8625709668
 H       -10.3762401247       -1.4049350162       -7.5533975795
 H       -10.6342952084       -2.2650519120       -5.9300707023
 H        -9.2938624094       -1.5266112964       -6.1435401149
 H        -8.8286905098        6.9381442115       -3.8153723891
 H        -7.1079706237        6.7378448983       -3.4750737070
 H        -8.5034293490        5.5799837567       -2.7141167253
 H        -6.3359609655        6.2061226382       -5.6786242673
 H        -7.9055489143        6.2625296020       -6.2949346325
 H        -6.9823096610        4.6314945937       -6.2785380748
 Na      -10.2877652940        2.5675456029       -1.6159629165
