117

 C        -6.1476485335        2.6058328335       -4.5678308833
 C        -7.3180588999        3.3881503234       -3.9493766438
 O        -7.8166517452        2.9172674823       -2.9530076452
 C        -7.9819922464        4.7818775353       -4.4941965144
 C        -9.4988480349        4.2553998835       -5.0189332979
 O       -10.5003481896        4.4300355521       -4.4224475902
 C        -9.5797166167        3.5414081887       -6.4717985469
 C       -10.4999680458        2.3355401459       -6.2343277841
 C        -9.8786869526        0.8763642453       -6.4094726819
 O        -8.8184052991        0.7732930120       -6.9805930822
 C       -10.5425528298       -0.1818399232       -5.5212213731
 C       -10.0527891922        0.0893819652       -4.0517050932
 O       -10.3647724215        1.1753794337       -3.5809310955
 C        -9.1663543582       -0.8916312917       -3.2469416216
 C        -8.6506401271       -0.2697172458       -1.9510761431
 C        -9.1912447613       -0.9287694043       -0.7726481505
 O       -10.0768710884       -1.7624878932       -0.9486706022
 C        -8.6807188868       -0.5536388184        0.6620867414
 C        -9.5519705530        0.8134375958        0.9113074870
 O        -9.4014037532        1.8244122930        0.3087691741
 C       -10.5408687887        0.6400907774        2.1471692930
 C       -11.7275265752       -0.1284409717        1.5798551503
 C       -12.3416294576        0.9737647882        0.4752472261
 O       -12.1892095522        0.8960678483       -0.6971501929
 C       -13.1341067037        2.2523762068        1.0421597707
 C       -12.4121303232        3.4019617264        0.3965762637
 O       -12.2564999535        3.3165663707       -0.8299347008
 C       -11.8020384762        4.5042520435        1.3130852759
 C       -10.9926471154        5.6288161425        0.3082503990
 C        -9.4011901016        5.4417111644        0.3973387422
 O        -8.9751895500        4.4746050559       -0.2038772842
 C        -8.5647015148        6.3953290960        1.2689901025
 C        -9.1946343070        6.5901478003        2.8815455893
 O       -10.4011851527        6.6904014312        3.0175717336
 C        -8.2908944889        7.1216249783        3.9390569334
 C        -8.9279228870        7.7590236951        5.0804587511
 C        -9.7947266147        6.8499712221        5.8866822440
 O        -9.3958448977        5.7369216563        6.0739380744
 C       -11.1324488711        7.4375865781        6.4381266183
 C       -10.7617840121        8.8019503730        7.3317393963
 O       -11.4226296880        9.8283407559        7.2323467935
 C        -9.6556294862        8.7730035605        8.5546694078
 C       -12.1151674514        7.9922289603        5.4098934698
 C       -11.6899930512        6.3997978990        7.3873489810
 C        -7.1163842908        5.9132559753        1.4553172378
 C        -8.5676171194        7.7838646044        0.5198166691
 C       -14.5594874085        2.1734445939        0.3402270241
 C       -13.2723446624        2.3120739211        2.5643574063
 C        -9.0496794991       -1.8051659753        1.6906462676
 C        -7.2568547272       -0.1521337353        0.4979844653
 C       -12.0445005712       -0.2600910451       -5.6802673495
 C        -9.8310866336       -1.5406596164       -5.9478245879
 C        -8.0325693407        5.9629781644       -3.6076439035
 C        -7.0251259976        5.0801973244       -5.6348341967
 H        -5.2979258309        3.3097565476       -4.6465736540
 H        -6.4927342581        2.3641978904       -5.5106634722
 H        -6.0571918574        1.7432170386       -3.9413175554
 H        -8.6180126158        3.1395055932       -6.8653582791
 H        -9.9684291762        4.2797239557       -7.2369588067
 H       -11.3610444829        2.3855894196       -6.7821776163
 H       -10.7948600468        2.4122113178       -5.1990015105
 H        -8.3132917186       -1.2664761218       -3.8639262305
 H        -9.7503025072       -1.7963657851       -2.9156064479
 H        -9.0536208946        0.7873706223       -1.8750465172
 H        -7.5932052075       -0.1824514418       -2.0217295225
 H       -10.9922614472        1.6378820029        2.3408227610
 H       -10.2204601654        0.3506989461        3.1330154606
 H       -12.2968938692       -0.5203932759        2.4479515591
 H       -11.5791655963       -0.9960134341        0.9329756518
 H       -11.1802286692        4.0157527367        2.0442297631
 H       -12.5726377922        5.0464451169        1.8570196720
 H       -11.4339195805        6.6407547178        0.5798051727
 H       -11.2539308187        5.2948777679       -0.6991244290
 H        -7.5498629046        7.8366823428        3.5544834540
 H        -7.7080761193        6.2302883649        4.3656083441
 H        -9.4573725233        8.7031377549        4.6730140643
 H        -8.1756559239        8.1842693296        5.7840271914
 H        -9.0979544495        9.6783200959        8.7021214511
 H        -8.9867982137        7.9522420239        8.4416529896
 H       -10.2440461860        8.7005450196        9.4685371474
 H       -11.6456346592        8.6369867005        4.6560239075
 H       -12.7695913340        8.6797314109        5.9526023061
 H       -12.7517615809        7.1396742855        5.0584342706
 H       -11.0997995263        6.4096480735        8.3041894418
 H       -11.5205661760        5.4764225334        6.8737728291
 H       -12.8262025953        6.4123971615        7.5186291821
 H        -6.5266303109        5.9285360451        0.5457422631
 H        -7.3030992409        4.8160871497        1.7635804959
 H        -6.5904986904        6.4407425879        2.2772909276
 H        -8.0822859593        7.5341145153       -0.4032551457
 H        -7.9645890928        8.4604348227        1.0611356428
 H        -9.5467099661        8.3381123088        0.3733171589
 H       -14.5370490464        1.9349519647       -0.7870180367
 H       -15.0104591614        3.1953027639        0.2061358490
 H       -15.1891887213        1.4365700411        0.8593189518
 H       -14.0290648225        3.0156807975        2.7448386798
 H       -12.3204624288        2.6392432138        3.0236204735
 H       -13.5467990000        1.3716019465        3.0341088859
 H        -8.5806738754       -1.4197430758        2.5866648220
 H        -8.5882957368       -2.7463791834        1.2884735061
 H       -10.1363690429       -1.8918273664        1.9943283623
 H        -7.1678307933        0.6959838358       -0.0993532971
 H        -6.6278637809       -1.0529067274        0.3748707378
 H        -6.8728067824        0.1213999511        1.4779041571
 H       -12.4973337630       -0.2349217205       -4.7067658632
 H       -12.3362550843       -1.1777379741       -6.1497546135
 H       -12.3873923872        0.6056394366       -6.2252686946
 H       -10.1614494058       -1.8353978420       -7.0357968538
 H       -10.2532369662       -2.4349852262       -5.4229725167
 H        -8.7108772110       -1.5118996836       -5.7974693568
 H        -8.2381270022        6.7392685464       -4.3042727928
 H        -7.0015058223        6.3926408023       -3.4080477576
 H        -8.7731993101        5.9123678577       -2.8612009097
 H        -6.0408693142        5.0907475138       -5.2174457825
 H        -7.1575812455        6.0174080488       -6.0404351272
 H        -7.0062019607        4.2302448992       -6.3461094102
 Na      -10.1065715005        3.2460211035       -2.1510862151
