117

 C        -6.1142831727        2.5097187415       -4.4642763044
 C        -7.4249847980        3.1385983830       -3.8913918772
 O        -7.9394268406        2.8813926861       -2.7929865082
 C        -7.9260633206        4.3788861474       -4.6098039650
 C        -9.4053013154        4.1162529843       -5.0175238087
 O       -10.2625356725        4.5961341631       -4.2578050409
 C        -9.5949747159        3.4125002969       -6.4017882673
 C       -10.5774772698        2.1148244244       -6.3778933157
 C        -9.8138346057        0.8568604498       -6.2874129136
 O        -8.6533703771        0.8461957707       -6.7247171654
 C       -10.3472752604       -0.3743031377       -5.4879286879
 C       -10.0083859101        0.1446534485       -3.9038264078
 O       -10.4184066460        1.2226275465       -3.5290545013
 C        -8.9717709763       -0.8159345340       -3.3068866966
 C        -8.5591929199       -0.3835925455       -1.8694027556
 C        -9.2716388548       -1.1290782836       -0.6992006782
 O       -10.2580143995       -1.8480676108       -0.8395732577
 C        -8.7535526475       -0.7239730701        0.7421358632
 C        -9.7266342855        0.5646938946        1.0872824756
 O        -9.5351249121        1.6169305563        0.4210044684
 C       -10.7467026427        0.5423125967        2.2480299079
 C       -12.2654699879        0.1230287154        1.7240735270
 C       -12.5961477761        1.0175681245        0.5182981290
 O       -12.7622234101        0.6096504616       -0.6149597412
 C       -13.2477214412        2.5735584852        0.8358369179
 C       -12.2540333273        3.6127206713        0.1596467149
 O       -12.0197583466        3.5081223361       -1.0297017056
 C       -11.6116122181        4.6637075241        1.0460500918
 C       -10.8727012939        5.7648766797        0.3671983586
 C        -9.4108923554        5.6498163862        0.2856256051
 O        -8.8825977343        4.8576019127       -0.4715557914
 C        -8.4657636740        6.4324757862        1.2333881227
 C        -9.1546193767        6.4845766737        2.6630013839
 O       -10.3358637368        6.5384276541        2.8268129037
 C        -8.1422671576        6.7133327143        3.8451178668
 C        -8.7830721405        7.8032738635        4.9566550501
 C        -9.8185379563        6.9712287158        5.8370698950
 O        -9.8671979357        5.7407648287        5.7471404995
 C       -10.9382423312        7.6554372183        6.5514160618
 C       -10.6184460382        8.9725115575        7.4230926271
 O       -11.3798448962        9.8567728761        7.1665688691
 C        -9.4928437470        8.8377292736        8.3688920521
 C       -11.9836776367        7.9790621487        5.4144532832
 C       -11.6718457275        6.6274258978        7.4768187469
 C        -7.1408968905        5.7599430678        1.2462362150
 C        -8.4830759226        7.9094914189        0.7407428147
 C       -14.6867753856        2.5776418255        0.2960191592
 C       -13.4199723383        2.8494751417        2.4111214377
 C        -8.9582718287       -1.9784362793        1.6558731913
 C        -7.2660046271       -0.2380986378        0.7284463155
 C       -11.8951750925       -0.4822008448       -5.5849436147
 C        -9.7002129921       -1.7126869671       -5.9335199232
 C        -8.0022981297        5.4544306449       -3.4750273464
 C        -7.1837114095        4.9295281360       -5.8275985293
 H        -5.3669268254        3.2583035556       -4.3591599047
 H        -6.2736360096        2.3210604549       -5.5619773669
 H        -5.8685218919        1.7305095575       -3.6912712490
 H        -8.6926017235        3.2585222022       -6.9806154660
 H       -10.1701484186        4.1215114636       -6.9538327572
 H       -11.2382644925        1.9892875911       -7.3236257784
 H       -11.2415015891        2.2533044883       -5.5035457006
 H        -8.0389265120       -0.6522697292       -3.8656907951
 H        -9.2675001162       -1.9081212120       -3.4793427856
 H        -8.7668417015        0.6737588762       -1.7372738834
 H        -7.4374016950       -0.4465756666       -1.8916326526
 H       -10.7272147329        1.5204091021        2.7403105235
 H       -10.4080900357       -0.2223305868        3.0035801374
 H       -13.0437007178        0.1781755472        2.4834875604
 H       -12.2271087674       -0.8983997603        1.3481684459
 H       -11.0118391924        3.9368630461        1.6503917478
 H       -12.2868423713        5.2546241637        1.6624225289
 H       -11.2497829207        6.6758651709        0.8194568967
 H       -11.2310334376        5.5893345941       -0.6994267607
 H        -7.2503539561        7.2112211658        3.4206634383
 H        -7.7998414374        5.8797514228        4.4065318570
 H        -9.0925087056        8.7595192386        4.6216417984
 H        -7.9978308661        8.0150075615        5.6741915856
 H        -8.6181429200        9.3014933607        7.9115606907
 H        -9.2288132798        7.7675574110        8.5741925653
 H        -9.6957962065        9.3883453661        9.3704633894
 H       -11.5094492784        8.5994776621        4.6585076907
 H       -12.8592122010        8.5881983717        5.7044510177
 H       -12.2673014538        6.9992120846        5.1192188758
 H       -11.1317950013        6.2295568975        8.3754230978
 H       -12.0466219181        5.8007557773        6.8205376142
 H       -12.5674027420        7.1298759427        7.7354475950
 H        -7.0557584670        5.1514402679        0.4122418095
 H        -7.0265347704        5.1965694370        2.0936634479
 H        -6.2854371020        6.4577165780        1.2520259991
 H        -7.9018657016        8.0101141280       -0.2212133242
 H        -8.2667848363        8.7004583814        1.5238575549
 H        -9.5344416307        8.0929068322        0.5588113568
 H       -14.7473890833        2.6357716947       -0.7182950083
 H       -15.2538421597        3.4723965025        0.6081836292
 H       -15.1709956820        1.6241385370        0.5847344507
 H       -14.0585379603        3.7279014781        2.7216108811
 H       -12.5312276730        2.6582481318        2.9491060630
 H       -13.9866484463        1.9176688334        2.9424059596
 H        -8.2825146355       -1.8482222323        2.5070512143
 H        -8.6236016580       -2.7870118695        1.0393284095
 H        -9.9679592817       -2.1076965644        2.0198461537
 H        -7.2301677599        0.8303112528        0.3394882541
 H        -6.5867839929       -0.9937889632        0.4064187364
 H        -6.9172887760       -0.1609815151        1.7627351185
 H       -12.3283283147        0.0290745917       -4.6781336095
 H       -12.3316041859       -1.5090749763       -5.5847313374
 H       -12.2404874523        0.0026022024       -6.5228278631
 H       -10.3101336794       -2.3063429208       -6.5537489540
 H        -9.5831895561       -2.4558755659       -5.1618262608
 H        -8.6984879746       -1.5378235586       -6.3814434270
 H        -8.2992046582        6.4533878851       -3.8827473749
 H        -6.9637834086        5.6208917243       -3.1404616167
 H        -8.6902012801        5.0794077195       -2.7083090261
 H        -6.3126126193        5.5292444037       -5.5092805565
 H        -8.0328047121        5.5837424941       -6.2587092756
 H        -6.8676486955        4.2625257767       -6.5979871706
 Na      -10.0229890206        3.6811707204       -1.9652375311
