117

 C        -6.0865143518        2.1947874819       -4.2498870367
 C        -7.3784566196        2.9264598244       -3.8242966793
 O        -7.9996912284        2.4465248925       -2.8994251420
 C        -7.8736325011        4.2638622100       -4.5967303388
 C        -9.5321200366        4.0231688649       -5.0055713017
 O       -10.4075062646        4.0014650524       -4.2029196300
 C        -9.8660474845        3.5291079152       -6.3974851530
 C       -10.4840108081        2.1720826401       -6.3213237424
 C        -9.7525372278        0.8854100086       -6.1045818211
 O        -8.5983245383        0.9611785276       -6.3876494426
 C       -10.2160370969       -0.3622744699       -5.4047066261
 C        -9.8925209384        0.0323435383       -3.8579742781
 O       -10.3934061212        1.0709863380       -3.4183771309
 C        -8.7848000363       -0.8166492353       -3.1906463360
 C        -8.5011163385       -0.3772731491       -1.7648323884
 C        -9.3243752516       -1.0713208532       -0.6709328698
 O       -10.1454595479       -1.9237396204       -0.8655606573
 C        -8.9339543209       -0.8121975731        0.8776754458
 C        -9.8808648253        0.4481371451        1.2824021258
 O        -9.6693221556        1.3473211962        0.5644817638
 C       -11.0533371225        0.2906848042        2.3917318956
 C       -12.3886155825        0.3086043907        1.8298559073
 C       -13.0395475074        1.1423773344        0.6194699884
 O       -13.3483916890        0.6109236256       -0.3672283340
 C       -13.4176480198        2.8075579913        0.7786973685
 C       -12.2855724427        3.7208481591        0.0667845982
 O       -12.0452657342        3.5224057011       -1.1258850445
 C       -11.4864531375        4.7423847065        0.8831571369
 C       -10.8375138590        5.9874742196       -0.0354132801
 C        -9.3453315791        5.8582149072        0.1445757506
 O        -8.8369210309        5.1518346569       -0.7343942378
 C        -8.4461591259        6.5287993554        1.2036624323
 C        -8.9719826092        6.4726934490        2.6899198339
 O       -10.1544596328        6.4299612017        2.8754501198
 C        -8.0647485826        6.8089582332        3.8965387282
 C        -8.7668953730        7.4707662908        5.0201142584
 C        -9.9983786820        6.7404022913        5.6138495888
 O       -10.0428615664        5.5407126601        5.5873692369
 C       -11.0188194906        7.7595726994        6.4900067561
 C       -10.4692398725        9.0499724666        7.2945664884
 O       -11.0947741091       10.1479876192        7.2227514239
 C        -9.2510968755        8.8782910704        8.1270130005
 C       -12.0759994668        8.1361053308        5.2492355107
 C       -11.6795838224        6.9499108294        7.6822428623
 C        -6.9877567775        5.9353992431        1.1841978339
 C        -8.2526350578        7.9996180928        0.8227391739
 C       -14.6452666434        3.1941692927       -0.1285721581
 C       -13.5510945991        3.1189779995        2.3302364520
 C        -9.0629072058       -2.0090544084        1.7673098418
 C        -7.4109248718       -0.2966355534        1.1233810153
 C       -11.7999431310       -0.4801124685       -5.4173635781
 C        -9.6215501189       -1.6337393306       -6.0161424721
 C        -7.6100072423        5.6544374366       -3.6530973510
 C        -7.1025925529        4.6872796127       -5.9543308374
 H        -5.4024924428        2.9942793721       -4.7295836974
 H        -6.4670402716        1.5742702097       -5.0438521406
 H        -5.6279987135        1.9186605242       -3.3367353932
 H        -8.9530884962        3.4405894814       -7.0017916159
 H       -10.5492656994        4.0533727097       -7.0932302278
 H       -10.9802239987        2.0563840497       -7.2502996048
 H       -11.2807080996        2.2734249207       -5.5658726970
 H        -7.8465904842       -0.7629609597       -3.7080504835
 H        -9.2225598011       -1.7884552137       -3.2047093732
 H        -8.6774888677        0.7252474550       -1.7005752537
 H        -7.4403842036       -0.4667933894       -1.5771807549
 H       -10.8680750340        1.0848243429        3.1120018050
 H       -11.0425990358       -0.6713873323        2.8480648593
 H       -13.1354382971        0.6821236962        2.5983263132
 H       -12.5429498502       -0.7849213013        1.6338921284
 H       -10.7444165585        4.3201778337        1.5925089257
 H       -12.2740774519        5.3136045957        1.3857036682
 H       -11.1197734467        6.8961552963        0.5126896436
 H       -11.0024830355        5.8752737966       -1.0856970120
 H        -7.0703070764        7.1954611707        3.7919217267
 H        -7.9134663358        5.7710708031        4.3579124731
 H        -9.2253941565        8.4479101930        4.7383165423
 H        -7.9997593910        7.7731803040        5.7690093296
 H        -8.3994176282        8.4380655907        7.4975990974
 H        -9.4219137438        8.2537630236        9.0198688741
 H        -8.9570988871        9.7833133172        8.4629398626
 H       -11.8018876971        9.0871583438        4.8397894525
 H       -13.0163553476        8.3311694327        5.6665780592
 H       -12.1348546444        7.3037436286        4.5588893856
 H       -10.9106420862        6.4433992358        8.1932207964
 H       -12.2762623138        6.1565764325        7.2851388163
 H       -12.1935565129        7.5797275075        8.4144494924
 H        -6.9796846769        4.9140108603        0.5508403491
 H        -6.5206150917        5.8134238586        2.2215852571
 H        -6.3033288751        6.6290495115        0.6807750462
 H        -7.9340385077        7.9729737368       -0.1675438024
 H        -7.4285546216        8.2759679394        1.4373301528
 H        -9.0549822349        8.6896831791        0.9926184881
 H       -14.3462452665        2.8699912584       -1.2131345645
 H       -15.0077653611        4.1832474779       -0.0803172062
 H       -15.4786474654        2.5290833663       -0.0020899095
 H       -14.0302222947        4.0810366097        2.4491067005
 H       -12.7488556454        2.8183067855        3.0929775647
 H       -14.2573838633        2.5551132721        2.7310412095
 H        -9.2832606739       -1.8521751704        2.8246598888
 H        -8.0936626301       -2.6176864927        1.7487752730
 H        -9.8686781784       -2.5053059608        1.2697794503
 H        -7.3080296290        0.5966246736        0.5903131034
 H        -6.8611241304       -1.1639388115        0.7187306540
 H        -6.9534588806       -0.1219179781        2.1485296021
 H       -12.4028702225        0.3546597148       -5.6028029051
 H       -12.0863012495       -0.7434465353       -4.3913933832
 H       -12.0788693931       -1.4080798152       -5.9395714379
 H        -9.6518785337       -1.6323191809       -7.1064865176
 H       -10.2319986809       -2.5547071265       -5.7641795792
 H        -8.5662934514       -1.6096404008       -5.8628627351
 H        -8.2431939607        6.4224544901       -4.1264253578
 H        -6.5949918946        5.9079914132       -3.6957223443
 H        -7.9082142884        5.4561418386       -2.5914429501
 H        -6.0756062606        4.9145878850       -5.6531989986
 H        -7.6101133994        5.3452553829       -6.5885253580
 H        -7.0382619154        3.7099203199       -6.5581744346
 Na       -9.9541709430        3.4944435276       -2.2006823316
