117

 C        -6.1207116845        2.2465223280       -4.3627925054
 C        -7.4554939251        2.9473448996       -3.8409052276
 O        -8.0714187358        2.4199351902       -2.9461672894
 C        -7.8985357047        4.1503851657       -4.6280877897
 C        -9.2868816965        3.8414460924       -5.0585930313
 O       -10.1816883579        3.8955388764       -4.2068781777
 C        -9.8393693183        3.4983757393       -6.4179215358
 C       -10.7410790625        2.2120699279       -6.3847332994
 C        -9.6035352998        1.0412241568       -5.9860338160
 O        -8.4233483308        1.1139998858       -6.2945964111
 C       -10.2037648370       -0.3383797329       -5.2496511289
 C        -9.8447757758       -0.0499303756       -3.7840526762
 O       -10.2921956074        0.9496620647       -3.2237774981
 C        -8.8216545415       -0.8732107205       -3.0563944268
 C        -8.5098741151       -0.3340194224       -1.6636993094
 C        -9.2132773630       -1.1684765944       -0.5981247895
 O       -10.0705026892       -1.9372925932       -1.0187063398
 C        -9.0184190835       -0.8905152108        0.9333261299
 C        -9.9904775465        0.4187847650        1.2297772510
 O        -9.8694381409        1.4894763713        0.6822330516
 C       -11.0849542432        0.3315517624        2.2901838760
 C       -12.7243158042        0.3456645658        1.8598058475
 C       -13.1226435618        1.3496688181        0.6735820937
 O       -13.6322436316        0.7937445946       -0.2781937454
 C       -13.3002046307        2.9462992265        0.7440730715
 C       -12.1933581504        3.7356893249        0.0209548110
 O       -11.9987083063        3.4427229647       -1.1549402361
 C       -11.5453792017        4.8123416664        0.9226937092
 C       -10.8923774830        5.9557328113        0.0594107848
 C        -9.2465350843        5.8468365267        0.0859711438
 O        -8.6801948274        5.1996514266       -0.8059659017
 C        -8.2670828942        6.6331851372        1.1715939783
 C        -9.0668640259        6.4653286937        2.6083353466
 O       -10.2462469215        6.3762112963        2.8537215529
 C        -8.0485490319        6.6943764534        3.8383217229
 C        -8.7338105555        7.4581422174        5.0372349887
 C       -10.0185665806        6.8239210042        5.6943038132
 O       -10.1798517677        5.6257855301        5.6851510108
 C       -10.9769152379        7.7016453332        6.4747048419
 C       -10.3325724799        9.0095683887        7.0768560463
 O       -10.9251400823       10.0587959789        7.0525336444
 C        -9.0827436304        8.9150984839        7.9977958607
 C       -12.1615403507        8.2538527285        5.4807754865
 C       -11.7675908962        7.0070906375        7.5289963157
 C        -6.9160987012        5.9492237410        1.1134872620
 C        -8.1369482439        8.1265627563        0.8245794403
 C       -14.4952129543        3.2552898816       -0.1747630122
 C       -13.6345548926        3.3133514227        2.1519719218
 C        -9.1828046020       -2.1208749698        1.8693198433
 C        -7.5368618320       -0.3372415984        1.2876511411
 C       -11.8291942423       -0.4580172851       -5.3948888499
 C        -9.5763040354       -1.5677729821       -5.9318339773
 C        -7.6850577084        5.4837533119       -3.9122029669
 C        -7.0586450278        4.3232177357       -5.8885915421
 H        -5.5309467573        2.8402970500       -4.9305969593
 H        -6.5484009983        1.5145029763       -5.0042566611
 H        -5.5294655203        2.0987431005       -3.5112113266
 H        -9.1823522122        3.3907807102       -7.3097027910
 H       -10.4697097151        4.3907608577       -6.7489767288
 H       -11.4055998558        2.0548691872       -7.1981248117
 H       -11.2818537633        2.2967187385       -5.5125865734
 H        -7.8988709553       -0.8330710045       -3.5975843141
 H        -9.2673819377       -1.9531650531       -2.9644457814
 H        -8.9003820086        0.6652485186       -1.5609667257
 H        -7.4140011590       -0.2311458913       -1.4813864568
 H       -10.8817076288        1.3119315927        2.6747309876
 H       -10.9717313763       -0.4735475282        3.0499919942
 H       -13.4306687811        0.5504952699        2.6466861576
 H       -12.8082108219       -0.6892580239        1.4283526124
 H       -10.7003739950        4.4326389049        1.4550132444
 H       -12.2297890941        5.2070537965        1.5726476109
 H       -10.9913976591        6.8941031634        0.5737132317
 H       -11.0888941952        5.8472650358       -1.0374350519
 H        -7.2379149599        7.4113971897        3.4918779576
 H        -7.4238203634        5.7811796300        4.1405763752
 H        -8.9839713398        8.4882999994        4.7491999912
 H        -7.9687718651        7.6479215173        5.9102412214
 H        -8.5239341382        8.0741474050        7.6269030466
 H        -9.5009567185        8.6761077199        8.9410103770
 H        -8.4479945239        9.7849366791        8.2217679234
 H       -11.8620905753        9.2827579730        5.1768659289
 H       -13.0150087491        8.4538961524        6.1252444994
 H       -12.4229888265        7.5896670942        4.6677495154
 H       -11.1331614580        6.3913008850        8.1970680620
 H       -12.3925682992        6.2078724881        7.0146292904
 H       -12.2624524608        7.7184011440        8.1106924902
 H        -7.0417005315        4.8928487309        0.8462189951
 H        -6.3142627718        6.1091360815        1.9650714091
 H        -6.3325221772        6.4257807139        0.2745366447
 H        -7.9741725012        8.2401934423       -0.2378730231
 H        -7.3228292755        8.6418812445        1.4079906724
 H        -9.0576881313        8.5013448856        1.0624826475
 H       -14.4178708033        2.7374454358       -1.1223453321
 H       -14.6955651586        4.3518954974       -0.2826235622
 H       -15.5299501796        2.8459720038        0.2184592740
 H       -14.1739625850        4.1911449830        2.1039017347
 H       -12.9617768994        3.2397233016        3.0031948520
 H       -14.4457360551        2.6471974571        2.5568511611
 H        -9.4766496207       -1.9657938796        2.9844942930
 H        -8.1742558116       -2.6277297980        1.9383150882
 H        -9.9107159242       -2.7000772656        1.3391748469
 H        -7.5214448964        0.6459515496        0.7937491471
 H        -6.8214116024       -1.0359476965        0.9332036191
 H        -7.3026616301       -0.1396925240        2.3571477151
 H       -12.2438122936        0.0904745765       -6.1965608353
 H       -12.4296176498       -0.1446260025       -4.5627960806
 H       -12.0427096579       -1.5174394612       -5.4940085266
 H        -9.2565334212       -1.5123135160       -7.0080170688
 H       -10.3214458716       -2.4306793627       -5.8262792594
 H        -8.4874840119       -1.7294947994       -5.5187474131
 H        -8.3212497729        6.2849566566       -4.4273842029
 H        -6.6393480651        5.6127160432       -3.8775309522
 H        -7.9864860423        5.3392138099       -2.8472217916
 H        -6.0336874855        4.5071105133       -5.6571362161
 H        -7.5001193690        5.0987532584       -6.5439732395
 H        -7.2118701757        3.5096765342       -6.4865528650
 Na       -9.9635541547        3.2814216767       -2.1768076181
