117

 C        -5.9774193945        1.8530255183       -4.2766870355
 C        -7.1955528156        2.7453697999       -4.0585917845
 O        -7.7701714509        2.6328293404       -2.9889801531
 C        -7.7904148830        3.9263170747       -4.9700274719
 C        -9.3692632459        3.6817600229       -5.2092166997
 O       -10.1004407689        3.9223391368       -4.2959155314
 C        -9.9583881569        3.5049160649       -6.5941018957
 C       -10.6870999305        2.1894702839       -6.4421258938
 C        -9.6086691698        1.1094231249       -5.9204483585
 O        -8.4083013377        1.2592298603       -5.9565001867
 C       -10.1443802701       -0.2519610319       -5.0929555526
 C        -9.8197222292        0.0519077898       -3.5632085463
 O       -10.4656619723        0.8880055053       -2.9705259744
 C        -8.6799657672       -0.7476327747       -2.9859452354
 C        -8.4658044285       -0.4658810151       -1.5038030525
 C        -9.3836658035       -1.1961328132       -0.4652060118
 O        -9.8954979489       -2.2264782465       -0.7590951453
 C        -9.2973446917       -0.7015852410        1.1186071361
 C       -10.2714561259        0.5061921609        1.2560016909
 O        -9.9873042484        1.4352071548        0.4730411081
 C       -11.4227467093        0.5086062690        2.2942175989
 C       -12.8609101297        0.4670731625        1.7921569558
 C       -13.4159981928        1.3671605883        0.6204367124
 O       -13.8927171616        0.8672094923       -0.3327128366
 C       -13.3711491324        3.1261990979        0.7400250523
 C       -12.1983900108        3.7868601118        0.1290843120
 O       -11.7582403962        3.3996957790       -0.9577519687
 C       -11.3706717226        4.8146142446        0.9556161961
 C       -10.7892229339        5.9173067698        0.0155974961
 C        -9.2195180267        5.7908596977       -0.0244710173
 O        -8.6273802126        5.0806753319       -0.7977227103
 C        -8.3114249098        6.5679867408        1.1326994398
 C        -8.9746404620        6.4426133495        2.6053888820
 O       -10.1828469364        6.4598664606        2.5986535442
 C        -8.1786368683        6.6084778640        3.8777447966
 C        -8.8734544898        7.4512726972        4.9538524544
 C       -10.0823308871        6.8421673685        5.6126516307
 O       -10.1381058815        5.6331955722        5.6768718001
 C       -11.0573708380        7.8160189502        6.4325892508
 C       -10.1876464334        9.1180130854        7.0373611133
 O       -10.4549477473       10.2679179324        6.7216722996
 C        -9.0080593228        8.7689391363        7.9064420116
 C       -12.0793418782        8.4150906128        5.3997005246
 C       -11.6986429678        6.8638364847        7.6046344976
 C        -6.8460705991        5.9624925444        1.1244596230
 C        -8.3111384684        8.1683472994        0.7410574441
 C       -14.6491016126        3.5101790307       -0.2827355099
 C       -13.6864179298        3.5833084892        2.1000646020
 C        -9.7426292650       -2.0100701193        1.8195281745
 C        -7.8847574964       -0.2258364975        1.4593519816
 C       -11.6304369028       -0.3663990645       -5.2759711480
 C        -9.3478234753       -1.4568334291       -5.7454201716
 C        -7.7163969273        5.2576449568       -4.1352777092
 C        -6.9808926725        4.0530610064       -6.2361902324
 H        -5.0778220741        2.5811363230       -4.1539601234
 H        -6.1048767045        1.4662461122       -5.2893788589
 H        -5.7912000731        1.3144653876       -3.3594703187
 H        -9.3077588081        3.3710159255       -7.4283262634
 H       -10.5679318594        4.3084852000       -6.8991501003
 H       -10.9849846494        1.7675403773       -7.4408764509
 H       -11.6534613372        2.1875680356       -5.7986226305
 H        -7.8331412355       -0.3810232409       -3.6796077193
 H        -8.9035814088       -1.7832019342       -3.0572308605
 H        -8.3346695553        0.6273230624       -1.2630591489
 H        -7.5626586595       -0.9178650991       -1.0951205697
 H       -11.3740229760        1.4228578304        2.9426568932
 H       -11.4281899127       -0.4069935115        2.8459983101
 H       -13.4088735962        0.8202093611        2.6789793043
 H       -13.0727330831       -0.5258798492        1.5316814887
 H       -10.4884294841        4.2919147020        1.4110928179
 H       -11.9693730311        5.2930077439        1.8212071004
 H       -10.9413972334        6.9828645000        0.2782814623
 H       -10.9579834512        5.5364868210       -0.9487098919
 H        -7.2244148756        7.0452112893        3.5801722627
 H        -7.8800661759        5.6389582403        4.2278699548
 H        -9.1046589162        8.4742991041        4.6130515471
 H        -8.2548138985        7.5185323411        5.7831330495
 H        -9.0137656336        7.6063083076        8.0229336271
 H        -8.8286241919        9.4894025135        8.7571618565
 H        -8.1386365808        8.9730137834        7.3401510101
 H       -11.5663107448        8.6842398846        4.4562113759
 H       -12.6942241995        9.2589504620        5.7801369245
 H       -12.6696865095        7.4898720831        5.1347905677
 H       -10.9584781186        6.5639734376        8.3533558270
 H       -11.9930332887        5.9273123277        7.2032437741
 H       -12.4888391572        7.4513167403        8.1874585873
 H        -6.7493724442        5.2263343795        1.9974303376
 H        -6.0536738690        6.6538455918        1.3318325369
 H        -6.5706383530        5.4164139420        0.3164331399
 H        -7.6886713112        8.2824270948       -0.1749560722
 H        -7.7786075108        8.6468143307        1.5510043274
 H        -9.3677397443        8.6194648578        0.5512601104
 H       -14.7219200966        3.0817525899       -1.3142840651
 H       -14.7015651188        4.5654547828       -0.3005756015
 H       -15.5533001024        3.3025617817        0.1473250919
 H       -13.8800010052        4.7422421876        2.1400154054
 H       -12.7916576138        3.3900559631        2.8925213811
 H       -14.4943695742        3.1559124691        2.5981873637
 H        -9.6139210712       -1.8610663780        2.8455687553
 H        -9.0489696604       -2.8380872115        1.6414764344
 H       -10.7743707708       -2.2373164519        1.5470625189
 H        -7.7093022121        0.7528034844        1.0040465882
 H        -7.0813182805       -0.9919815527        1.1426998299
 H        -7.9369156997       -0.0708700849        2.5494312046
 H       -11.8317104596       -0.8595183482       -6.2510453540
 H       -12.2035434114        0.5763349781       -5.4060434957
 H       -12.2289006270       -0.7823874887       -4.4381376558
 H        -9.7020748613       -1.4183654328       -6.7639201397
 H        -9.7472536821       -2.3976411059       -5.3528280764
 H        -8.3353319356       -1.4202212049       -5.9440977998
 H        -8.0471748966        5.9858119608       -4.8519497221
 H        -6.7184614064        5.3909138397       -3.7016082190
 H        -8.4350541854        5.2256514972       -3.2893949905
 H        -6.0716932272        4.6121752061       -6.0215451680
 H        -7.5141344434        4.6343205868       -6.9392303933
 H        -6.8812404281        3.0830421800       -6.8386685653
 Na       -9.8116551428        2.9566389509       -1.7980513093
