117

 C        -5.3646270296        2.0083695451       -4.9148805513
 C        -6.6011477638        2.6781771025       -4.3293501834
 O        -6.9534331411        2.4092255215       -3.1926039238
 C        -7.3835693944        3.8555775754       -5.1737274790
 C        -8.7948084982        3.7910389890       -5.0100305096
 O        -9.4030526395        4.0343538006       -3.9493899029
 C        -9.6317310122        2.9497856034       -6.0275763875
 C       -10.4390687187        1.8644751764       -5.4591114477
 C        -9.6009918707        0.5990272177       -5.3577464718
 O        -8.4581639584        0.5471712559       -5.8143921290
 C       -10.1850155433       -0.5960509656       -4.4999461633
 C        -9.6633181988       -0.2114983235       -3.0898794893
 O       -10.1994367510        0.6835858948       -2.5232509837
 C        -8.4469420582       -0.7873155517       -2.4348593647
 C        -8.3804929786       -0.4413139720       -0.9541971038
 C        -9.5130221559       -1.1131017228       -0.0417016197
 O        -9.8881197129       -2.1471136042       -0.4975790088
 C       -10.3010822286       -0.5717883463        1.2645158109
 C       -10.9883448441        0.7335525314        1.1461994375
 O       -10.3752996971        1.6297879072        0.4787203150
 C       -12.0523305366        1.2623394373        2.0958818314
 C       -13.5309567648        1.0419886473        1.4935046951
 C       -14.1118803751        1.9613872854        0.3736913807
 O       -14.5668965032        1.2512047351       -0.4794272781
 C       -13.9607079810        3.5025336125        0.4620916273
 C       -12.5920711811        3.9413010976       -0.2775526565
 O       -12.2771680145        3.4903082279       -1.3771875303
 C       -11.6669378879        4.9579602922        0.5211631076
 C       -10.6009008171        5.5458542013       -0.2633141554
 C        -9.1023417840        5.1785018575        0.3142735065
 O        -8.6832727037        4.1078055679        0.2391714761
 C        -8.0930957145        6.4127848733        0.6994022779
 C        -8.7189625064        6.8254605393        2.0233915425
 O        -9.7810214257        7.4167552940        1.9637940881
 C        -8.1695064201        6.4498892624        3.5355217471
 C        -8.6642556921        7.5554801646        4.5590379177
 C        -9.7617506779        7.0149758173        5.5284685437
 O        -9.8293857180        5.7929630291        5.6354624431
 C       -10.6232502423        7.9822304238        6.2649759538
 C        -9.5942129696        9.0026779950        6.9392678646
 O        -9.2117584731        9.8642880490        6.1473207684
 C        -9.3679741704        9.0051298538        8.4051739171
 C       -11.5902666219        8.6986322747        5.3311947167
 C       -11.5505411962        7.4369095301        7.3381229545
 C        -6.6373517707        6.0202822528        0.6646907677
 C        -8.3224807615        7.5429507835       -0.3856412383
 C       -15.1546330920        4.1530423924       -0.4959005047
 C       -14.0907651887        3.9852450942        1.8146927634
 C       -11.3154807540       -1.7280950064        1.6227295312
 C        -9.2573202273       -0.4684241664        2.3305624620
 C       -11.7710442421       -0.7993424894       -4.4929715724
 C        -9.5233792364       -1.9999277893       -4.9904174762
 C        -6.6766944188        5.0951471085       -4.5280462776
 C        -6.8503234539        3.6332783101       -6.6472530976
 H        -4.5801073576        2.7546810403       -5.2061847463
 H        -5.6960464134        1.3111189025       -5.6741708606
 H        -5.0750240416        1.3913872382       -4.1391923869
 H        -9.0184370795        2.3184080086       -6.7356798618
 H       -10.2610894603        3.6611679177       -6.6453073804
 H       -11.2608973619        1.6563701699       -6.0658288096
 H       -10.9036559365        2.2132862970       -4.5424506732
 H        -7.4818629439       -0.3409590531       -2.7919075309
 H        -8.4504714027       -1.8264221666       -2.5271006552
 H        -8.3258851298        0.6323693255       -0.7672541352
 H        -7.4138702161       -0.7004208635       -0.5374110578
 H       -11.7761288074        2.3095401300        2.4058610928
 H       -11.9726070071        0.8014801970        3.0644404966
 H       -14.3627050542        1.1697325326        2.2899490659
 H       -13.5743086609       -0.0206442622        1.3287780465
 H       -11.1863634216        4.3773918810        1.2305572717
 H       -12.3276591925        5.6345995250        1.0857785251
 H       -10.5835959430        6.6786928014       -0.2933538860
 H       -10.5442942254        5.2474391625       -1.3245396604
 H        -7.0285830960        6.4692730207        3.5676541752
 H        -8.4220491316        5.4296897656        3.8281764582
 H        -9.3091353580        8.3476981661        3.9981252687
 H        -7.8021090755        7.9569174419        5.1475932629
 H        -8.5302969216        9.8056543197        8.6046591253
 H        -9.2495839515        8.0473603551        8.7789205204
 H       -10.2428166717        9.4193700045        8.7720714548
 H       -12.5017926671        8.2402158649        5.5724978945
 H       -11.4026597224        8.6749967393        4.2791485102
 H       -11.5922768275        9.7588634100        5.6006668933
 H       -10.8380158906        7.2260629201        8.0796952915
 H       -12.0195696901        6.5830950891        7.0318523841
 H       -12.3018251878        8.0884472687        7.8088525586
 H        -6.2683389658        5.7069170105        1.7285591047
 H        -5.9223507058        6.7781341705        0.4497622895
 H        -6.2810546927        5.2150527542        0.0461674931
 H        -8.1001221233        7.0441218276       -1.2946884708
 H        -7.6255180695        8.3188223884       -0.2564727340
 H        -9.3251855278        8.0099175000       -0.4136869721
 H       -15.1170296775        4.0749476368       -1.6616358579
 H       -14.9139636689        5.2213518793       -0.3291621270
 H       -16.1546730928        3.9488373043       -0.1234384267
 H       -14.2089906197        5.0261900357        2.0164894401
 H       -13.0495075072        3.9997270562        2.3083280689
 H       -14.8063770592        3.5769176294        2.4039522913
 H       -11.8754561728       -1.5368155438        2.5792064443
 H       -10.7957037280       -2.7419136073        1.6991615653
 H       -12.1414449925       -1.8571895773        0.9105176280
 H        -8.6627447219        0.3772644103        2.0623889836
 H        -8.5754399849       -1.4103674757        2.2748309431
 H        -9.7954317770       -0.4333431355        3.2631383599
 H       -12.0324932259       -1.3512623525       -5.4101366490
 H       -12.3781424970        0.0932735832       -4.4754124816
 H       -12.1875160842       -1.5377813941       -3.8278125046
 H       -10.3145572839       -2.4270577977       -5.5717886783
 H        -9.4207006732       -2.7426055252       -4.1303202156
 H        -8.4911469152       -1.7197372121       -5.3282087506
 H        -7.0877894536        6.0164505689       -4.9341679707
 H        -5.7015219753        5.0695381577       -4.7855413383
 H        -6.9058585785        4.8953197554       -3.4353307976
 H        -5.7515988423        3.5022480805       -6.7515012239
 H        -7.1499826993        4.5183745912       -7.1517950857
 H        -7.2341302205        2.6370601373       -7.0950815483
 Na       -9.8163080286        2.9651813245       -1.5883148814
