117

 C        -4.7297278028        2.2288063503       -4.4348567062
 C        -6.2843655640        2.4144435288       -4.2265459423
 O        -6.8859666571        1.6580946562       -3.5160951513
 C        -7.1136894138        3.6200635513       -4.9670753062
 C        -8.6046295398        3.3232089398       -4.5547969211
 O        -9.0396996606        3.6434049505       -3.4676950055
 C        -9.4224436940        2.5784014090       -5.5494233063
 C       -10.4169794285        1.5893208251       -4.8353827397
 C        -9.8716350083        0.1432731298       -5.0155435227
 O        -9.3838455792       -0.2512144539       -6.0476546505
 C        -9.8508878666       -0.8806085684       -3.7958598354
 C        -9.7909342289       -0.2227511051       -2.3416763003
 O       -10.6870130610        0.6008177770       -1.9778484129
 C        -8.5236024156       -0.5313095464       -1.4303727373
 C        -8.7427523440       -0.6775707396        0.1021084111
 C       -10.1812140707       -1.1411992443        0.2697270794
 O       -10.6664604776       -1.6975413931       -0.6784319908
 C       -10.9778962965       -0.7369068957        1.5745838935
 C       -11.3311164662        0.8808656718        1.2202499731
 O       -10.5373170994        1.4264216943        0.5826495057
 C       -12.5635260651        1.4385990739        1.9059841282
 C       -13.8572952347        1.3105684965        1.3029021478
 C       -14.0985042008        2.1386471101        0.0257892790
 O       -14.7420129055        1.8090488391       -0.9741571959
 C       -13.9069344673        3.8574992159       -0.0625329553
 C       -12.4712172293        4.2007262960       -0.3931785883
 O       -11.9296903929        3.5010519037       -1.2097609248
 C       -11.8921903800        5.4695006891        0.2953954228
 C       -10.6760071160        6.0178143987       -0.3485577194
 C        -9.3056843279        5.3681234740       -0.1201707538
 O        -8.8873718023        4.2677687978       -0.5626131800
 C        -7.9264560853        6.3373598474        0.3488993876
 C        -8.4407028360        7.1674208943        1.4950032527
 O        -9.2717184873        8.0886261341        1.3377347689
 C        -7.8188145270        6.8179586565        2.9301808191
 C        -8.5008285604        7.7693155692        3.9936472836
 C        -9.5324958265        7.2330638557        4.9817109165
 O        -9.6537523536        6.0300278806        5.2055991413
 C       -10.3045391415        8.2171913481        6.0744229623
 C        -9.2035295631        8.9931857572        6.8892943245
 O        -8.1288113372        9.2725589116        6.4634652526
 C        -9.7511206943        9.5056836470        8.2342869827
 C       -11.1810965982        9.2470848284        5.2512139972
 C       -11.2125577287        7.2465935042        6.8844677845
 C        -6.8303228196        5.3211468442        0.7209118726
 C        -7.4951613846        7.3508153140       -0.7845916573
 C       -14.8235402909        4.3328183778       -1.2771928210
 C       -14.5867370270        4.4715975163        1.1514945312
 C       -12.1745999563       -1.7941607338        1.6550497415
 C       -10.0890781019       -0.8910295297        2.7971642591
 C       -11.3941230415       -1.3330681831       -3.8998536930
 C        -8.8672458130       -2.1598660143       -4.0581229584
 C        -6.5562392982        4.9759114084       -4.1717135389
 C        -6.8057659198        3.7370054642       -6.4597062713
 H        -4.4964051438        2.7835840661       -5.3944995193
 H        -4.6235375514        1.2017685597       -4.6634681862
 H        -4.2019776179        2.4148759524       -3.5803546163
 H        -8.7046585173        1.9123754357       -6.0195047361
 H        -9.8011329987        3.4013251096       -6.1594964090
 H       -11.3723959932        1.7057754882       -5.3885380976
 H       -10.6442439181        1.9254816010       -3.8341765110
 H        -7.7662820180        0.2884748366       -1.4419679191
 H        -7.9400143815       -1.4945476050       -1.7629694401
 H        -8.3746154868        0.1867557298        0.6509961373
 H        -8.1295776761       -1.5448391038        0.4403829764
 H       -12.2700010071        2.4539571807        2.1217169568
 H       -12.5383583184        0.9726260834        2.9536049075
 H       -14.5287961442        1.8040081929        1.9770079305
 H       -14.2490154095        0.2766691868        1.3214085874
 H       -11.7887391762        5.0827429366        1.3042060032
 H       -12.6378138343        6.2383268090        0.3065387278
 H       -10.5811725366        7.0162733119        0.0623000476
 H       -10.7837649350        6.3647991684       -1.4367230165
 H        -6.7829430120        7.1034776303        2.7634623250
 H        -7.8959586892        5.7000706911        3.2193383943
 H        -8.8194371591        8.6808423072        3.5735056979
 H        -7.6606976682        8.0328886473        4.6871605422
 H       -10.3042488414        8.6214270520        8.8603498746
 H       -10.4608487618       10.2933301092        8.1211510819
 H        -8.9579045337       10.0601638176        8.6871030405
 H       -11.1308350280       10.2754073135        5.4610796133
 H       -12.2486463779        9.0417397248        5.1912742082
 H       -10.7435231957        9.1802402754        4.3009718369
 H       -10.6976343061        7.1435289932        7.8307095333
 H       -11.2784549815        6.2303535886        6.5795116790
 H       -12.2061137797        7.6525931710        6.9574465983
 H        -5.7349736565        5.6231344658        0.6096712642
 H        -6.9589444842        4.4302045860        0.2222906079
 H        -6.8351067916        5.0686622925        1.6915587050
 H        -7.0021195754        6.8622360582       -1.5723655041
 H        -6.7892114369        7.9955460743       -0.4300147872
 H        -8.3774760228        7.9249527451       -1.1137631097
 H       -14.7865836119        3.8763720393       -2.3720846003
 H       -14.5739730996        5.4358457639       -1.4417211194
 H       -15.7908819847        4.2429412267       -0.8999728330
 H       -14.9293279919        5.5042208900        1.0024156215
 H       -13.9514197707        4.2814084425        2.1567063140
 H       -15.4154638905        4.0476248364        1.5526979557
 H       -13.0981779167       -1.5032092278        2.2376790410
 H       -11.8498550533       -2.7388689058        2.0838857043
 H       -12.6880782028       -1.9721743862        0.6178065749
 H        -9.3276697019       -0.0834130553        2.9043318370
 H        -9.8300527414       -1.9127501176        2.7218735358
 H       -10.6589978151       -0.8357091946        3.6851871115
 H       -11.5219317258       -1.7680572685       -4.9253406127
 H       -12.0733221214       -0.5332200727       -4.0353693947
 H       -11.7739996394       -1.9414939575       -3.1338713278
 H        -9.1779975232       -2.6498404307       -5.0610667786
 H        -8.9980178734       -2.9699166139       -3.2425640990
 H        -7.8738584721       -1.6244651695       -4.2477004246
 H        -7.0779340828        5.8503064801       -4.5762545522
 H        -5.5334900283        4.9090521150       -4.5738246533
 H        -6.6457030139        4.8759666448       -3.0629670197
 H        -5.7609860184        3.9351606089       -6.5002185176
 H        -7.3187057517        4.6507248786       -6.8344117491
 H        -7.2251983170        2.9734024267       -7.1261646847
 Na       -9.9719389904        2.8217327692       -1.7944895489
