117

 C        -4.6189799366        2.4972135859       -4.3374031707
 C        -6.0877881413        2.1804813327       -4.2848900063
 O        -6.4659733759        1.1461411262       -3.8412313628
 C        -7.0449305498        3.3613723493       -4.7480268442
 C        -8.5975276210        3.1302902102       -4.5085595093
 O        -9.1069227175        3.3432042202       -3.4369486501
 C        -9.4737095203        2.4083646331       -5.5367461785
 C       -10.3959111045        1.3840524364       -4.8797935414
 C        -9.7586174047       -0.1393587169       -4.9078774613
 O        -9.1480615490       -0.3490304429       -5.9177152260
 C        -9.8752740178       -1.2224991689       -3.6063685158
 C        -9.6434285708       -0.4639406503       -2.3202902554
 O       -10.5363617619        0.3759107146       -2.1214876673
 C        -8.5950978351       -0.6969849283       -1.2897909415
 C        -9.2297520879       -0.6441572274        0.1661390961
 C       -10.6440657938       -1.0943195583        0.2983345344
 O       -11.1974642985       -1.9626761940       -0.2954224719
 C       -11.3888032472       -0.4965185795        1.4889681543
 C       -11.5532876342        1.0940840934        1.3193727140
 O       -10.7287892134        1.7249502785        0.7677595138
 C       -12.8968901598        1.7957292589        1.9226310932
 C       -14.0639840498        1.5138266359        1.0631172816
 C       -14.2167721045        2.4403150441       -0.1895603216
 O       -14.3241494871        1.9507621438       -1.3259442896
 C       -13.9671641951        3.9694020813       -0.1099803979
 C       -12.4887820420        4.3530140155       -0.4422044423
 O       -11.9375832901        3.6975984492       -1.2776718471
 C       -11.6773492809        5.3847483964        0.4377963081
 C       -10.4982516195        5.8658471340       -0.4114056532
 C        -9.1538400061        5.4159682551       -0.0444535303
 O        -8.8526299234        4.1963328525       -0.2002792431
 C        -7.9531324712        6.3307929565        0.2103264729
 C        -8.2658527036        7.3405110528        1.3414653902
 O        -9.1238513141        8.2071242303        1.1781760997
 C        -7.7053151881        7.1838977181        2.8421067026
 C        -8.4351068028        8.1438619922        3.7538201578
 C        -9.3869438149        7.3945025651        4.7753867601
 O        -9.5727127268        6.2224780633        4.7237305581
 C       -10.2359874969        8.2361684545        5.9479902738
 C        -9.0281159622        8.9274656419        6.8599240022
 O        -7.8863232545        8.6717763926        6.6876641089
 C        -9.6967671787        9.9065823626        8.0232637397
 C       -10.9909469214        9.3763686480        5.1900816020
 C       -11.1288952772        7.2887243071        6.8101064661
 C        -6.8461225859        5.3645526621        0.5810841188
 C        -7.6693823149        7.1274421436       -1.0331732162
 C       -14.8438556300        4.6861179459       -1.2090545645
 C       -14.5796095983        4.5355780046        1.1277678182
 C       -12.6910477279       -1.2519639167        1.7122111704
 C       -10.6198064646       -0.6480780546        2.8107984797
 C       -11.2385936975       -1.9051554897       -3.5511759479
 C        -8.8671669586       -2.2863849051       -3.9875491181
 C        -6.4370782356        4.7756389134       -4.0304515540
 C        -6.6518393021        3.6438742384       -6.3282957370
 H        -4.4503699873        3.1601570801       -5.2545117837
 H        -4.0954151258        1.6090622732       -4.5631172787
 H        -4.3999382747        2.9474381759       -3.3814639341
 H        -8.7001350607        1.8208497480       -6.0804910882
 H       -10.0074638750        3.1338250573       -6.2007978810
 H       -11.3084082470        1.4540393696       -5.4253317480
 H       -10.5210907094        1.6824309080       -3.8786012285
 H        -7.8062322541       -0.0246446235       -1.4442078781
 H        -8.0922193479       -1.7170793861       -1.3670814673
 H        -9.1909910062        0.3850586292        0.5371666394
 H        -8.5957670430       -1.2144818529        0.8216619399
 H       -12.5839040098        2.8007799959        2.1295904295
 H       -13.1071420834        1.1793754025        2.8032839910
 H       -14.8621346959        1.7890165735        1.8010567275
 H       -14.3683720746        0.4192061540        0.9150052479
 H       -11.1869144410        5.0078645301        1.3432407514
 H       -12.2730711085        6.1486896830        0.7685047251
 H       -10.4839261821        6.9471486593       -0.3983898627
 H       -10.5247836453        5.8069324937       -1.5345382044
 H        -6.6588978532        7.2745752178        2.8567197743
 H        -8.0222909915        6.1975118326        3.0995894676
 H        -9.0311226721        8.8814470435        3.1567587001
 H        -7.6309432319        8.8378894089        4.1846783563
 H       -10.8343331695        9.7991875728        7.8818098228
 H        -9.4419915617       10.8852191319        8.1001257154
 H        -9.3199970491        9.6128065756        8.9438016849
 H       -11.4646331829       10.1583547056        5.8607737172
 H       -11.8435722385        9.0846750691        4.4779996291
 H       -10.2707800448        9.9832606332        4.6469826586
 H       -10.7930485356        6.2528998103        6.9527451007
 H       -11.9905754931        7.1217004946        6.0632257588
 H       -11.5166702974        7.8088586490        7.6392870846
 H        -5.9466671332        5.9623772109        1.0488451845
 H        -6.4252561901        4.8257360715       -0.2652406098
 H        -7.1170727630        4.7071857140        1.3379172292
 H        -7.5411749452        6.4845693291       -1.9504638359
 H        -6.6639863187        7.5730377191       -0.9264342975
 H        -8.4666731476        7.9092338536       -1.1790194376
 H       -14.2393676825        4.7767130104       -2.1921514114
 H       -14.8856753634        5.6720629718       -0.6911950969
 H       -15.7983074246        4.3367506735       -1.3975792741
 H       -14.5722567109        5.6222749514        1.1586601692
 H       -14.5541708498        4.0076088285        2.1571628016
 H       -15.5756065478        4.3703763371        1.0099778006
 H       -13.2552940585       -1.0295873038        2.5856307850
 H       -12.5701193158       -2.2640553751        1.7301317526
 H       -13.4511265444       -1.1294764417        0.8894968808
 H        -9.5855635422       -0.1748383758        2.6745999821
 H       -10.5996842880       -1.6352074692        3.2238449852
 H       -11.1485030027        0.1366206609        3.4234907528
 H       -11.5716393078       -2.1568738911       -4.5916016623
 H       -12.0632812202       -1.3916691506       -2.9977906981
 H       -11.1618666181       -2.7955250703       -2.9378894671
 H        -9.0717976622       -2.5608643442       -5.0238677553
 H        -8.9877512626       -2.9937256225       -3.2108458889
 H        -7.8696675254       -1.9751639968       -4.0652885659
 H        -7.1193718882        5.5874275960       -4.1551488266
 H        -5.4222482847        4.8452634050       -4.4991860655
 H        -6.1509774242        4.4673888983       -3.0863580166
 H        -5.7220119738        4.1976749542       -6.4313924464
 H        -7.3629757665        4.4335965894       -6.7575320738
 H        -6.8300154952        2.8402152059       -7.0121515459
 Na       -9.9541078305        2.7245778661       -1.3783324204
