117

 C        -4.5191734519        2.5394352850       -4.3276576409
 C        -6.0449482530        2.1374681333       -4.3414915179
 O        -6.5004019869        1.0552449504       -4.0286016562
 C        -7.0327869463        3.3369329485       -4.6666044757
 C        -8.4214897510        2.9476494776       -4.3424314713
 O        -9.0511157579        3.2132868801       -3.3199590236
 C        -9.3566997924        2.1752261713       -5.5026532645
 C       -10.2384976488        1.1837770808       -4.7739796176
 C        -9.5785359389       -0.2084467761       -4.8302207525
 O        -9.0738268950       -0.4577372433       -5.9147090428
 C        -9.8301913267       -1.3144487086       -3.7932930844
 C        -9.7188336434       -0.5363749234       -2.3768529515
 O       -10.5374164844        0.4072883892       -2.1542612680
 C        -8.7085160311       -0.9400965114       -1.1888174633
 C        -9.2586093486       -0.6276950606        0.1915455903
 C       -10.7364172250       -1.0762455233        0.3798631741
 O       -11.1789631990       -2.1032700004       -0.0917183097
 C       -11.6675509444       -0.2681758687        1.4460558299
 C       -11.7132779496        1.1884273215        1.2676202735
 O       -10.8224795387        1.9201699883        0.9119500693
 C       -13.0576990470        1.8471178442        1.9977626137
 C       -14.2235803911        1.7432402987        0.9811524742
 C       -14.1312899851        2.6063575978       -0.3332463397
 O       -14.1602925322        2.1002301793       -1.4117233738
 C       -14.0903265261        4.1774760132       -0.1419932889
 C       -12.3977706904        4.1992170085       -0.3833330098
 O       -11.9931149871        3.8182645732       -1.4285539466
 C       -11.7023053668        5.2163919892        0.4415728595
 C       -10.4721041205        5.8744579903       -0.3904675805
 C        -9.0766804674        5.3420009682       -0.0920298307
 O        -8.8428752056        4.1510157648        0.0923831895
 C        -7.9464957512        6.3601518708        0.2144866442
 C        -8.4235628287        7.3972620825        1.2731582376
 O        -9.1653148486        8.2876529043        0.9797210441
 C        -7.6828644427        7.2869026011        2.7049940320
 C        -8.3951320308        8.1018613917        3.8071523583
 C        -9.2529623471        7.4464410503        4.7188148292
 O        -9.6836177392        6.2431834983        4.6184739102
 C       -10.0750157193        8.3676165144        5.8141967862
 C        -9.1149787045        8.8943198562        6.8341125756
 O        -7.9496974282        8.5643318837        6.8945544356
 C        -9.5424550499        9.8834957731        7.8144284348
 C       -10.9380787536        9.4375798946        5.2741183451
 C       -10.9620453209        7.3980836928        6.5636414221
 C        -6.6653653240        5.4751446568        0.6749871084
 C        -7.6818637987        7.1206726243       -1.1409181645
 C       -14.7818728638        4.8185010555       -1.3235143658
 C       -14.6024542509        4.6981645334        1.3332458451
 C       -12.9183392543       -1.1821186686        1.7989564957
 C       -10.7008347588       -0.4740390893        2.7885150572
 C       -11.1937150043       -1.9032863306       -3.7734864206
 C        -8.7824160785       -2.5383002809       -4.0698624280
 C        -6.6243796977        4.6850844298       -3.9820233251
 C        -6.8108177751        3.4363449599       -6.1997032604
 H        -4.3628138557        2.9966482228       -5.3058196810
 H        -4.0033476267        1.6179488769       -4.5322765837
 H        -4.3109581900        3.1186794924       -3.5233490966
 H        -8.7803915155        1.5357079303       -6.2237947913
 H       -10.0019071039        2.9564261846       -6.0293371563
 H       -11.1482023697        1.1198974626       -5.3099078266
 H       -10.3661186378        1.5141915595       -3.7867081612
 H        -7.8042837128       -0.3097411236       -1.4811997172
 H        -8.2563214234       -1.9738530485       -1.0918712154
 H        -9.0414848727        0.3671154595        0.5303517862
 H        -8.7085745145       -1.3264786249        0.8424769415
 H       -12.6804578351        2.7855355455        2.1745036268
 H       -13.2754152245        1.1881466515        2.8839965068
 H       -15.1051647684        1.9827020329        1.6084014985
 H       -14.5139507877        0.7322006118        0.6134969317
 H       -11.2484966719        4.8810554260        1.2967273622
 H       -12.4666629761        5.8554484826        0.8011997101
 H       -10.4169689228        6.9817301570       -0.3289114256
 H       -10.6097423944        5.9053483961       -1.5532316320
 H        -6.7383256718        7.6797871723        2.4557370944
 H        -7.6422117218        6.2046968502        2.9195168044
 H        -8.8904465933        8.9961138042        3.3635465422
 H        -7.6206150608        8.6102031424        4.4680687301
 H       -10.5189904011       10.3389419805        7.5764618024
 H        -8.7667711279       10.6154358064        7.9629444780
 H        -9.3941459291        9.4896200360        8.7967622947
 H       -11.8037185683        9.4562154266        5.9349193385
 H       -11.3741370127        9.2032614517        4.2646637506
 H       -10.6669249420       10.5083973419        5.2678967502
 H       -10.6961814202        6.3815604574        6.2840272614
 H       -11.9973076789        7.4514978250        6.3671901121
 H       -10.7507277094        7.5773335553        7.6465195533
 H        -5.8847889408        6.0410846908        1.1861864513
 H        -6.2159491786        5.1888068890       -0.1818091912
 H        -6.9165314822        4.6035468521        1.2864372178
 H        -7.6938128327        6.3309701163       -1.9058774602
 H        -6.7703258042        7.6372088236       -1.2422226000
 H        -8.6054203601        7.7771972936       -1.3311267090
 H       -14.4456009841        4.3732110103       -2.3331703602
 H       -14.7932682821        5.9433318906       -1.2554656192
 H       -15.8615116962        4.5531168858       -1.1480689197
 H       -14.6279300879        5.7720582809        1.5195809018
 H       -14.1494688461        4.0257611985        2.0938749803
 H       -15.5910209278        4.3427668425        1.5705330194
 H       -13.5768422395       -1.1582769352        2.6772269967
 H       -12.6194070247       -2.2757654110        1.7426813569
 H       -13.6137263165       -1.2035563836        0.9543020419
 H        -9.5973648698       -0.2367780012        2.6240425181
 H       -10.7844111374       -1.6152435272        2.8592878960
 H       -11.0777562371        0.0491063948        3.6511150713
 H       -11.5269249371       -2.1176910821       -4.8597472643
 H       -11.9756615378       -1.4111563101       -3.2354543927
 H       -11.1758775010       -2.8438895098       -3.2282031525
 H        -9.0149704766       -2.9818349842       -5.0246476654
 H        -8.8082784782       -3.0540740959       -3.0613502897
 H        -7.6769786259       -2.2387706078       -4.2431810246
 H        -7.4014342327        5.4475271588       -4.1629720008
 H        -5.7008457205        4.8891797920       -4.2972767628
 H        -6.3858433939        4.2228652240       -2.9625563841
 H        -5.8640569824        3.8420393204       -6.5305094391
 H        -7.5054659943        4.1366795757       -6.7052966680
 H        -7.1403097849        2.4424662208       -6.6902129815
 Na       -9.9418465604        2.8475780679       -1.1903685680
