117

 C        -4.4748368452        2.4120475113       -4.2858572785
 C        -6.0132284845        2.1386982422       -4.2722895229
 O        -6.4176971469        0.9836755767       -4.2134395205
 C        -7.0242243253        3.2694431709       -4.7007996019
 C        -8.3966040857        2.8161993420       -4.2523230143
 O        -8.8107919426        3.1278164160       -3.1506218788
 C        -9.2691061723        2.0453878923       -5.3153307283
 C       -10.2687781383        0.9929148379       -4.7996799277
 C        -9.5577059096       -0.3474734113       -4.9815916934
 O        -8.8613109872       -0.7436275914       -5.8950310448
 C        -9.7747729994       -1.3914115265       -3.6956038964
 C        -9.7135301516       -0.6297354666       -2.3509080880
 O       -10.3848293921        0.3650753781       -2.0901283368
 C        -8.8698901611       -1.2310175489       -1.2040743163
 C        -9.3463998029       -0.6497272792        0.0961873121
 C       -10.7713903045       -1.1525826257        0.4987937185
 O       -11.1337626170       -2.2024824095       -0.0283141711
 C       -11.6646019691       -0.4330249739        1.5499761307
 C       -11.9144090674        1.2285751586        1.4225375682
 O       -11.0524376290        2.0623583566        0.9982198777
 C       -13.2381367342        1.9382641298        1.8829548454
 C       -14.5257716164        1.8775715749        0.9261952555
 C       -14.2036966010        2.6864496952       -0.3038392742
 O       -14.0207408600        2.2388284614       -1.4170071024
 C       -14.0552673794        4.2078703561       -0.1609302176
 C       -12.5300898676        4.5671933744       -0.4987827968
 O       -12.1845631942        3.8434800341       -1.4553053305
 C       -11.5412031588        5.2077336929        0.4518064117
 C       -10.4143118145        5.9067115924       -0.3136584668
 C        -9.0419531675        5.2794527329        0.1068570880
 O        -8.9025161723        4.1258893652        0.3779905598
 C        -7.9072902179        6.3193799543        0.1585040731
 C        -8.3906818812        7.4804290825        1.2456899606
 O        -9.1932305392        8.2668906004        0.8718224069
 C        -7.7294680957        7.4395290058        2.5924068053
 C        -8.2924027227        8.2731353922        3.8084416473
 C        -9.4533328477        7.4989941177        4.5333127872
 O        -9.6039905741        6.3092741858        4.3827992866
 C       -10.1307305885        8.3021825503        5.7816940140
 C        -8.9073492374        8.9353663341        6.8577704560
 O        -7.8374860378        8.3344379080        6.9912124667
 C        -9.4660006472       10.0692791837        7.7986899643
 C       -10.8913195400        9.5601301014        5.1003294660
 C       -11.0028930533        7.2797049188        6.6373646744
 C        -6.5082986106        5.7790010647        0.6457873460
 C        -7.6708006496        7.0796311298       -1.1950033814
 C       -14.7073034954        4.9736929104       -1.3676751511
 C       -14.4271745932        4.8215747329        1.1611694409
 C       -13.0059091177       -1.0075354712        1.7330989671
 C       -10.7969996734       -0.3140239055        2.9214917687
 C       -11.2563031044       -1.8900317155       -4.0710612360
 C        -8.7079748294       -2.5114407844       -3.9475139699
 C        -6.8396427770        4.5763702791       -3.9039115231
 C        -6.9687242985        3.3794751895       -6.2505219835
 H        -4.1844808127        2.7055286250       -5.2047110235
 H        -4.0372236960        1.4139961257       -4.2749257874
 H        -4.2654894274        3.1439187850       -3.4591840535
 H        -8.6623334133        1.5249726094       -6.0780505641
 H        -9.8590974266        2.8734590939       -5.7478369601
 H       -11.1304005277        1.0607927640       -5.4744619452
 H       -10.4906936117        1.0954283262       -3.7009257213
 H        -7.7799111694       -0.9425636812       -1.5280514902
 H        -8.8144159567       -2.3008708482       -1.1415779746
 H        -9.2411365193        0.4384569044        0.0175496609
 H        -8.6591062555       -0.9870581095        0.8989567349
 H       -12.8119129314        2.9648337057        2.0000552803
 H       -13.4460540669        1.3945278925        2.7778386396
 H       -15.3188907897        2.1549656244        1.6047944367
 H       -14.8033434490        0.9748035998        0.4803876751
 H       -11.1280443556        4.3423967185        0.9903123465
 H       -12.0975339421        5.7625206383        1.3037989463
 H       -10.3845583431        7.0220317647       -0.3603953995
 H       -10.6702832138        5.8092228220       -1.3702458334
 H        -6.7316508545        7.8060520076        2.2088740400
 H        -7.6879808963        6.3345642248        2.7621797218
 H        -8.3785162663        9.3189064076        3.5126232682
 H        -7.5365435812        8.3220384559        4.5521605969
 H       -10.1519678460       10.6210031374        7.3041440749
 H        -8.6214973371       10.7167273013        8.2885718175
 H        -9.7501788768        9.6439013144        8.8056015613
 H       -11.9077156026        9.5680069430        5.4285634698
 H       -10.8786586376        9.5331899334        4.0423159853
 H       -10.5803054900       10.5860568950        5.3627922055
 H       -10.8625081436        6.2990809360        6.2242520950
 H       -12.0394962010        7.4691486545        6.7363167117
 H       -10.4323143338        7.2966866222        7.5894698045
 H        -5.8642703195        6.5512572705        0.8498539889
 H        -6.0321278580        5.2686023541       -0.2393047785
 H        -6.6126166188        5.0575103276        1.5046635128
 H        -7.5706256959        6.3918248809       -2.0016232776
 H        -6.7872834691        7.7425539079       -1.1426273554
 H        -8.5225771520        7.6426129501       -1.3847069035
 H       -14.6540756722        4.2590309253       -2.1150101169
 H       -14.3881500833        5.9678308291       -1.6748387607
 H       -15.8706836119        5.0418689778       -1.0769474069
 H       -14.5252893619        5.8966982683        0.9714605764
 H       -13.7857710831        4.6143966678        1.9043072924
 H       -15.4132527822        4.3990663025        1.6967942383
 H       -13.6725113469       -0.4906603483        2.5072314598
 H       -13.2162875084       -2.0902210188        2.0619155009
 H       -13.5232704099       -0.9632261997        0.7872382305
 H        -9.9723722005        0.3130968844        2.7336784601
 H       -10.3598307210       -1.3453756762        3.0718020489
 H       -11.4341112339       -0.0062611216        3.7474213067
 H       -11.2910194303       -2.1478634735       -5.1050091276
 H       -11.9361583367       -1.0740881169       -3.8528270943
 H       -11.7530625929       -2.6958332224       -3.4784640135
 H        -9.0839009191       -2.9020045476       -4.9132472378
 H        -8.5260069330       -3.1409135845       -3.0091058584
 H        -7.6715070517       -2.1640570038       -4.3052701978
 H        -7.6855916352        5.1258624832       -4.3239053897
 H        -5.8439723663        5.0457341746       -4.0274029717
 H        -6.8813962095        4.2279938196       -2.8718296489
 H        -6.0360142928        3.8345472280       -6.6735520265
 H        -7.7264893729        3.9591800128       -6.7218509338
 H        -7.1021956865        2.3626643860       -6.6696896930
 Na      -10.0113004838        2.7468342059       -1.1054026691
