117

 C        -4.4365813882        2.4298738224       -4.0500045219
 C        -5.9627482820        1.9979863675       -4.4156788227
 O        -6.3331922434        0.8251049344       -4.4498510380
 C        -6.9768099780        3.2214966462       -4.6386767271
 C        -8.3259695821        2.5358528137       -4.2337062275
 O        -8.5874261110        2.2288843846       -3.0575353440
 C        -9.4348526513        2.0244646937       -5.3936572716
 C       -10.1231065258        0.7270189920       -5.0307297650
 C        -9.2959987246       -0.5804697396       -4.8575376157
 O        -8.4363226484       -0.9055390545       -5.6480821644
 C        -9.7483442799       -1.5846345723       -3.6695920029
 C        -9.7641307113       -0.7813328115       -2.3641895912
 O       -10.3466089943        0.3256157016       -2.3883973475
 C        -9.2852910778       -1.4056009430       -0.9787540509
 C        -9.5576267801       -0.6410028312        0.4106086999
 C       -11.0066761137       -1.0979848649        0.8066462169
 O       -11.4815108107       -2.1282000821        0.2749007222
 C       -11.9694999545       -0.2531911001        1.8416847897
 C       -12.3351317101        1.1869640330        1.3896096005
 O       -11.5932157994        1.8275387372        0.7328616493
 C       -13.5652592478        1.9782535329        2.0130319003
 C       -14.6406369766        2.2754887903        0.9999953353
 C       -14.1892761343        2.9803368585       -0.3949243395
 O       -14.2230304142        2.4064061321       -1.4608909604
 C       -13.9289491986        4.6116940740       -0.4155427462
 C       -12.3998728578        4.7434199260       -0.6656872049
 O       -12.0835855259        4.0981347446       -1.6301899363
 C       -11.4205302840        5.1563948266        0.3513121910
 C       -10.1038753011        5.7933943635       -0.1952660531
 C        -8.8116025815        5.4452432882        0.3806359828
 O        -8.5378699739        4.3586583205        0.7956603043
 C        -7.7702318373        6.6125384102        0.2613848593
 C        -8.1258700165        7.6408815533        1.2807261914
 O        -9.0406549518        8.3836627410        1.1766080789
 C        -7.3624874401        7.7228048117        2.6820658448
 C        -8.1954249685        8.5067197872        3.6776657034
 C        -9.3755119180        7.8052259960        4.3229421868
 O        -9.6982555087        6.6523095891        3.9392460458
 C       -10.0253815789        8.4873619351        5.5292518180
 C        -8.8479961291        8.7443781538        6.6684595301
 O        -7.8506658258        8.0462355086        6.8622132489
 C        -9.0360299773       10.0330861066        7.5090170598
 C       -10.8844870322        9.6333352197        5.0719831415
 C       -10.9142329046        7.3565509121        6.3059783661
 C        -6.4146806581        5.9466604642        0.4316216949
 C        -7.8157133219        7.2518613712       -1.2136203621
 C       -14.7438462406        5.0917717725       -1.7099810397
 C       -14.3595290675        5.2738180104        0.9565703331
 C       -13.1613490535       -1.1125775137        1.9909557707
 C       -11.2707200023       -0.1556128979        3.1910796179
 C       -11.2227306733       -2.2069086346       -3.7842837710
 C        -8.8771059682       -2.8727040941       -3.7037005101
 C        -6.5355764823        4.4423658811       -3.7080310352
 C        -6.9799097105        3.4473421763       -6.1399773976
 H        -3.9504817020        2.7192692734       -4.9180150962
 H        -4.0345479962        1.4126489426       -3.9196872265
 H        -4.4180666854        3.1397558945       -3.2448471306
 H        -8.9156988870        1.9342897190       -6.4008099325
 H       -10.2641742963        2.7713579867       -5.5583734570
 H       -10.7485707717        0.4222727434       -5.8254010656
 H       -10.7041595253        0.9465269086       -4.1885864805
 H        -8.1427699457       -1.5735360900       -1.0663555455
 H        -9.6317378246       -2.4371290732       -0.9588377499
 H        -9.2111635540        0.3712510840        0.4319795639
 H        -8.8484139572       -1.1963083160        1.0444966555
 H       -13.0149158792        2.7348607439        2.4767698832
 H       -13.8723748510        1.1185577436        2.6217594546
 H       -15.2330253712        3.1113440907        1.4951669317
 H       -15.3551968134        1.4520962139        0.7989624367
 H       -11.4085595315        4.3517253941        0.9942558505
 H       -11.8748629376        5.9566169818        0.9516624126
 H       -10.3125533468        6.8962545294       -0.1815162392
 H       -10.1342357843        5.7395508500       -1.3232373675
 H        -6.4802489497        8.1899661930        2.4536996251
 H        -7.1618588107        6.7514450660        3.1188829820
 H        -8.5832091409        9.4820809583        3.2917359950
 H        -7.4144011752        8.8852011024        4.4236075991
 H        -8.6716219355       10.8327704715        7.0434232911
 H        -8.6404842988        9.9471664738        8.5868211941
 H       -10.1018394486       10.1599711783        7.6774261020
 H       -11.6863708761        9.9199141037        5.7538864932
 H       -11.1613872550        9.4980804047        4.0156826336
 H       -10.3401848771       10.6049427898        4.8698870629
 H       -11.8560756644        7.1086102488        5.8076578413
 H       -11.1230998815        7.6447683291        7.2988678351
 H       -10.2294595631        6.4487688628        6.1432340891
 H        -5.7599750864        6.6304380682        0.1476040549
 H        -6.3003857513        5.0706221073       -0.1859218158
 H        -6.3238738232        5.6484940708        1.5166416009
 H        -7.7801329496        6.4426257476       -1.9944146483
 H        -7.0630698190        8.0593472376       -1.3109335771
 H        -8.7725381821        7.7793997330       -1.4323737647
 H       -14.3261573798        4.7853874070       -2.6227731295
 H       -14.5417528033        6.1661027675       -1.5670535841
 H       -15.9297375515        5.0437673873       -1.5248832730
 H       -13.8592405757        6.2217404843        1.1852555389
 H       -13.9935144139        4.7061915916        1.6600319677
 H       -15.5415927538        5.3872110829        1.0121617316
 H       -13.6919941951       -0.8400810935        2.8839959680
 H       -12.9722883250       -2.1359475620        2.3580084212
 H       -13.7745850818       -1.2510748154        1.2124697804
 H       -10.3784941067        0.4517448482        3.0876932302
 H       -10.9004128794       -1.1956327022        3.5446648670
 H       -12.0641574900        0.2148473472        3.7837844990
 H       -11.1202684087       -2.9934328930       -4.5613831068
 H       -12.0420157284       -1.4977975897       -3.9193921211
 H       -11.4301219565       -2.9776662042       -2.9929936455
 H        -8.4071506533       -2.9159939321       -4.6347538846
 H        -9.4466175694       -3.8053321349       -3.5249269580
 H        -8.2733348003       -2.8817259224       -2.8145665939
 H        -7.1538889651        5.2629046737       -3.9629445774
 H        -5.6398446840        4.6664531181       -4.2051565558
 H        -6.3489656854        4.0332898984       -2.6898994259
 H        -6.0674876755        3.8045778388       -6.6266663062
 H        -7.7945322797        4.1191551228       -6.3772290547
 H        -7.0105171629        2.5181255536       -6.7922977655
 Na      -10.3389671537        2.2558535602       -1.2624227185
