117

 C        -4.4096620454        2.2878246469       -4.0324333839
 C        -5.8784117822        1.9763566730       -4.4176492327
 O        -6.2428472520        0.8467733420       -4.5148919113
 C        -6.9622404218        3.0774666268       -4.6548272922
 C        -8.3108275395        2.3249745355       -4.2752652853
 O        -8.5606303709        2.1410796236       -3.1004719247
 C        -9.3646445691        1.8953068107       -5.2942208817
 C       -10.0890089311        0.6507471165       -5.0423121695
 C        -9.2813662419       -0.6872719945       -4.8254504399
 O        -8.2921122789       -0.9399277455       -5.4224104172
 C        -9.7585359283       -1.7011625025       -3.5565979787
 C        -9.8336568506       -0.8142773236       -2.2490190900
 O       -10.4747451406        0.1968464863       -2.2350479284
 C        -9.1780437534       -1.3391111833       -0.9522246263
 C        -9.8249045846       -0.6270452085        0.3151915933
 C       -11.2222268762       -1.1885225010        0.7588941288
 O       -11.6593737100       -2.1731992896        0.2792970741
 C       -12.0773426999       -0.3460785962        1.9533684335
 C       -12.4196288267        1.0866567991        1.4510065576
 O       -11.8199064192        1.6771303164        0.4926862684
 C       -13.6279805041        2.0566514432        2.0393804862
 C       -14.7031880791        2.4313776590        0.9174949524
 C       -14.3156821330        3.1488507375       -0.3342229345
 O       -14.2989635827        2.4352963468       -1.3774208081
 C       -13.9131133255        4.6920296754       -0.4195502450
 C       -12.3302162629        4.5397110912       -0.6790276376
 O       -11.9350226596        4.0742525607       -1.7759016910
 C       -11.3981317133        5.1152366224        0.4169180129
 C       -10.1940718291        5.9264082551       -0.2825159295
 C        -8.7902937499        5.4641104434        0.3502540220
 O        -8.5637956842        4.3942325736        0.8629057799
 C        -7.6111020839        6.5842642989        0.2486698061
 C        -8.0387773150        7.7437590793        1.4136461903
 O        -9.0143212159        8.4447378883        1.1507217669
 C        -7.2189822616        7.7823665223        2.7509760637
 C        -8.0274348177        8.6392817644        3.7530599730
 C        -9.3685304145        7.7824670520        4.2359427035
 O        -9.6634738434        6.7484733852        3.7503579888
 C        -9.9459907710        8.4649005968        5.4692580545
 C        -8.9480796631        8.7520882649        6.4910239673
 O        -8.0010848646        8.0198516716        6.6582390066
 C        -8.9539013099       10.0551331663        7.4016222114
 C       -10.7631804130        9.7767771224        5.2674807362
 C       -10.8670142498        7.3239576304        6.1347607760
 C        -6.1729001413        5.9941109491        0.3295493632
 C        -7.7846037374        7.3571517906       -1.0702938396
 C       -14.5981257707        5.1056074905       -1.7760706264
 C       -14.3625749391        5.3469530282        0.9085985091
 C       -13.4315928658       -1.0703116433        2.2228079536
 C       -11.2484349995       -0.0341194574        3.3365305934
 C       -11.2640101540       -2.1265906561       -3.6778308324
 C        -8.7300343984       -2.8035938251       -3.6343850085
 C        -6.7448559153        4.2345045493       -3.6013557973
 C        -6.8700892181        3.4931387697       -6.1859968294
 H        -3.9893464949        3.0145242867       -4.6495086368
 H        -3.9726226166        1.3564227531       -4.1671461640
 H        -4.5093114709        2.6687083218       -2.9785386598
 H        -8.7542395725        1.7940413041       -6.2330081016
 H       -10.1488779516        2.6709029756       -5.5755690922
 H       -10.6329029746        0.4643221235       -5.9174517536
 H       -10.8047074159        0.8312380018       -4.2177617343
 H        -8.0127893841       -1.2077865027       -0.9237320344
 H        -9.2352557785       -2.4363197666       -0.9565684887
 H        -9.9943604659        0.4287989496        0.0430159870
 H        -8.9949816681       -0.5995357817        1.0081352118
 H       -12.9510656608        2.7804174790        2.5618589150
 H       -14.0777274578        1.3733349288        2.6814062996
 H       -15.4222616670        3.1303119557        1.3765327517
 H       -15.2406598847        1.5641611233        0.6687715978
 H       -11.0081144919        4.3068757024        0.9754875651
 H       -11.8780623424        5.7165119763        1.2274937171
 H       -10.4032915078        7.0546231748       -0.3908542049
 H       -10.2415746937        5.7203099628       -1.3805810874
 H        -6.2938525895        8.2507296076        2.3350524099
 H        -7.0264099469        6.7927796270        3.1391908858
 H        -8.4230464852        9.6118254059        3.3257507045
 H        -7.3236046163        9.0187879942        4.4719270894
 H        -8.0780789419       10.6998790287        7.1714199665
 H        -8.7781852272        9.6303783748        8.3852112049
 H        -9.8483028840       10.6797437825        7.5736550084
 H       -11.0573231898       10.1180585904        6.2886051070
 H       -11.6220666478        9.6330795443        4.6431189839
 H       -10.3585897196       10.6422253852        4.7009860525
 H       -11.8500209461        7.6424024370        5.8440159133
 H       -10.8060196683        7.3532843798        7.2346112109
 H       -10.7236797201        6.3781940766        5.6570205929
 H        -5.5396850407        6.9377782772        0.3514062452
 H        -5.9245937267        5.3533150442       -0.4985325200
 H        -6.1938969503        5.4731691182        1.1939310236
 H        -8.0306797778        6.7604468339       -1.9612423374
 H        -6.8881297553        8.0704468460       -1.2091810525
 H        -8.5583181189        8.0625079229       -0.9847596617
 H       -13.7805115444        4.9013185262       -2.4972680931
 H       -14.8018855493        6.2468413360       -1.9371449647
 H       -15.5228219161        4.5438421741       -1.9339391239
 H       -13.8163844803        6.2550388932        0.8803706630
 H       -13.8662004578        4.9356557800        1.8495723239
 H       -15.4104835779        5.5512865825        0.9250631441
 H       -13.9110153400       -0.4784452944        3.0498272532
 H       -13.6118250830       -2.0261234387        2.6773668317
 H       -14.1156760956       -1.1334281502        1.3301493016
 H       -10.2403463358        0.2330562868        3.0725876032
 H       -11.1728693294       -0.9655272750        3.9104597594
 H       -11.9081375670        0.7459663470        3.8503635990
 H       -11.5563327186       -2.6498488539       -4.5228492078
 H       -11.7873943498       -1.1437030749       -3.5007598956
 H       -11.5252135970       -2.9625699451       -2.9736802175
 H        -8.2270491169       -2.7553763403       -4.6655623188
 H        -9.2881475327       -3.8040019715       -3.6543219423
 H        -8.1589352664       -2.8700081208       -2.6850769830
 H        -7.6022359248        4.8555951185       -3.6927361404
 H        -5.8230205894        4.8458158326       -4.0561422406
 H        -6.5754101038        3.7422507510       -2.6994456236
 H        -5.7900376104        3.7055892574       -6.4443232222
 H        -7.4318517316        4.4121437234       -6.3851208091
 H        -6.9506552898        2.8211030210       -6.9925763950
 Na      -10.3900003946        2.2392076695       -1.4215066807
