117

 C        -4.1755512769        2.2103723327       -4.0300871466
 C        -5.6104794616        1.6309221560       -4.4207923190
 O        -5.7100140390        0.4762783649       -4.7325594853
 C        -6.8450813275        2.7293382315       -4.3719919349
 C        -8.3083506587        2.0018806424       -4.1298246174
 O        -8.8873447721        2.0798379537       -3.0451433093
 C        -8.7090166167        1.0961440187       -5.3418953865
 C        -9.7148056498       -0.0214732482       -4.9763977038
 C        -9.0125369675       -1.0734538481       -4.0811048185
 O        -7.8579743403       -1.0318458078       -3.8786598820
 C        -9.9263365214       -2.1835824835       -3.1407173719
 C       -10.3636080253       -1.4803820646       -1.9099368413
 O       -11.2222545989       -0.5553893650       -2.1006014286
 C        -9.8203955444       -1.6713740952       -0.3699798289
 C       -10.3112765068       -0.6294936734        0.6058145303
 C       -11.8832384159       -1.0048984804        0.9923952888
 O       -12.5771437236       -1.8914609667        0.4901609524
 C       -12.5332920830        0.0684981413        1.8902212059
 C       -12.7446289428        1.4473761577        1.1192967064
 O       -12.3458754565        1.6082819066        0.0320328119
 C       -13.5452073381        2.4877171569        1.8587602269
 C       -14.7998708113        3.0285690349        1.0786789993
 C       -14.4735124277        3.4930295306       -0.4419765610
 O       -14.7865296993        2.7981847653       -1.4373893157
 C       -13.5734364761        4.8710260851       -0.7270842111
 C       -12.0687466642        4.4947024293       -0.7442434743
 O       -11.6716497804        4.2568514938       -1.8784060822
 C       -11.0238357923        4.7648600703        0.3695445385
 C       -10.0498893383        5.9955537861        0.1269219635
 C        -8.5395035323        5.6852851584        0.3284389382
 O        -8.2465955405        4.5568277640        0.7527902917
 C        -7.5647083278        6.7997330671        0.0787376731
 C        -7.8333679946        8.1387700355        1.0586684125
 O        -8.5201920567        9.0304375151        0.7393231682
 C        -7.0476965367        8.1068412602        2.4918595844
 C        -7.8046242965        8.8973358010        3.5830045144
 C        -9.0546226678        8.1747223468        4.0023158872
 O        -9.6192575163        7.4184297048        3.2063833428
 C        -9.7110201317        8.6471206526        5.2626554909
 C        -8.8052232238        8.4679903850        6.5976718849
 O        -8.0427623301        7.4937378190        6.8263854660
 C        -8.5516175326        9.8817936062        7.4025640745
 C       -10.3270242487       10.0338540015        5.0632557695
 C       -11.0656226773        7.7599874037        5.6052178757
 C        -6.0819032465        6.2155921541        0.2298590845
 C        -7.7704794519        7.3560788843       -1.4057400659
 C       -14.0405857454        5.3423042765       -2.1146903422
 C       -13.7782809594        5.9164442576        0.3972288839
 C       -13.9484290718       -0.6161902206        2.3225098047
 C       -11.7337756900        0.3701872403        3.2654708041
 C       -11.2894280486       -2.6653477826       -3.7368935115
 C        -9.0512780989       -3.4659229131       -2.9572676951
 C        -6.5776836140        3.9213848460       -3.3249397001
 C        -6.8244383284        3.5017261405       -5.6439217735
 H        -4.2303362594        3.2464213379       -4.2023303576
 H        -3.4890078450        1.5680255476       -4.6508973768
 H        -4.0947592167        1.9474162743       -2.9165469412
 H        -7.7539152769        0.7199927339       -5.7008688533
 H        -9.0404096668        1.6638275047       -6.1959202038
 H       -10.0336590768       -0.7531657881       -5.8129753965
 H       -10.7189478260        0.3342605359       -4.6655168189
 H        -8.7640570008       -1.6242691323       -0.4962609592
 H       -10.1896379551       -2.6012758880       -0.0015282505
 H       -10.0668107982        0.3238369513        0.0974188296
 H        -9.7037150640       -0.6161748214        1.5499249494
 H       -12.8552798562        3.3311348400        1.8043521638
 H       -13.6436831451        2.3594764083        2.9737350093
 H       -15.2904138241        3.8458498024        1.6012884721
 H       -15.3905740582        2.1466413136        1.1786170579
 H       -10.4282767715        3.7913324890        0.6146848190
 H       -11.4570584859        5.1114210708        1.3201498136
 H       -10.4210174950        6.8067321712        0.6977373833
 H       -10.2519420969        6.1920760714       -0.9066076826
 H        -6.1648677034        8.6808498826        2.0975482892
 H        -6.7133013347        7.0325093151        2.6652230007
 H        -8.1567726914        9.7800575340        3.1432459027
 H        -7.1226932432        9.2378389655        4.3888549702
 H        -7.8962095820        9.6158524952        8.1548849033
 H        -9.4093952585       10.4280959938        7.9772232836
 H        -8.1047546481       10.4660737236        6.5927681527
 H       -10.5913923316       10.5358172221        5.9579925754
 H       -11.2960926616        9.9707290215        4.5359867898
 H        -9.6846851153       10.7948910130        4.6082485138
 H       -11.1274580826        7.4341138454        6.6061758278
 H       -11.0917035265        7.0739948894        4.8441534354
 H       -11.9904670598        8.4067087984        5.4855872899
 H        -5.4548471716        7.0943030239        0.1972450938
 H        -6.0001784685        5.5182897703       -0.6862868834
 H        -6.1286520919        5.7902345808        1.2018419944
 H        -7.5932487145        6.6995722572       -2.2352672044
 H        -7.0508925103        8.1470480170       -1.5639323024
 H        -8.7392044783        7.8189493735       -1.4624364698
 H       -14.5321946800        4.7038806524       -2.7435834303
 H       -13.2457027161        5.8904894258       -2.4937287271
 H       -14.8054889399        6.1274656943       -1.7704105275
 H       -13.3194704069        6.8467121416        0.0784081042
 H       -13.3522613292        5.5413050468        1.3226207764
 H       -14.8954036220        6.0497942929        0.5848106616
 H       -14.6515809720        0.1641426148        2.7949605880
 H       -13.8030568028       -1.3511659252        3.2081311890
 H       -14.6253844641       -1.1340525352        1.6616650759
 H       -11.9620297801        1.3779728825        3.5339847248
 H       -10.6856935750        0.0093485514        3.1436459407
 H       -12.1022639461       -0.2244859365        4.0369875271
 H       -11.1958275937       -3.0200756078       -4.7734446076
 H       -12.0301478105       -1.9132483337       -3.8741560198
 H       -11.6783068925       -3.3799159291       -3.0049662101
 H        -8.5044178788       -3.8612525406       -3.8380987303
 H        -9.6983439685       -4.3411999936       -2.6392486585
 H        -8.1340814621       -3.2146697261       -2.3250274905
 H        -7.5848792072        4.3244150332       -3.2354932502
 H        -6.0287524924        4.6994934665       -3.9592271443
 H        -6.3107072110        3.5422639016       -2.3501905441
 H        -5.9190012942        4.0082518816       -5.8389728912
 H        -7.5401977697        4.2627336787       -5.7937327342
 H        -7.0172000318        2.8516415085       -6.5388128139
 Na      -10.9399153746        1.7267798280       -1.9196584998
