117

 C        -4.2331278819        2.2177951573       -4.0290940510
 C        -5.6219753060        1.7286984713       -4.3841345000
 O        -5.8248335844        0.5869767635       -4.7958654717
 C        -6.8458387316        2.7962038358       -4.2673829943
 C        -8.1483675270        1.9121020259       -4.1221057449
 O        -8.9086634940        1.9810329877       -3.1430683142
 C        -8.5893986387        0.9205140237       -5.2024583693
 C        -9.6366361580       -0.1093969356       -4.7256130100
 C        -8.9472910191       -1.2074966881       -3.8428830582
 O        -7.7892630503       -1.1738454055       -3.5093980883
 C        -9.9218179910       -2.3394662257       -3.1212458394
 C       -10.2955598557       -1.5312518610       -1.9140829318
 O       -11.1697642381       -0.6531526694       -2.0468655751
 C        -9.7849597111       -1.7549121918       -0.5038839876
 C       -10.5158722928       -0.7246310988        0.4537806150
 C       -11.9342484629       -0.9278731517        0.8906134637
 O       -12.5050544742       -1.8655349285        0.5218925986
 C       -12.6893162327        0.1259905195        1.9727793277
 C       -12.8464271800        1.5235739943        1.2526048392
 O       -12.2885100776        1.6675986086        0.1412032119
 C       -13.6054817562        2.7006856095        1.8451876483
 C       -14.7781398737        3.2485996932        0.9071878238
 C       -14.3733168371        3.6550067433       -0.4515836471
 O       -14.8253066768        3.0044474991       -1.3896860252
 C       -13.5837151511        5.0168090208       -0.7165279385
 C       -12.0034877219        4.5780886685       -0.8788448091
 O       -11.5800372523        4.0903780384       -1.9323535243
 C       -11.0525198767        4.7282347620        0.3091920468
 C       -10.0671129669        5.9854756080        0.1737208234
 C        -8.6202862389        5.6862170848        0.4284006743
 O        -8.0858551337        4.6301685220        0.6930803040
 C        -7.6102366280        6.8877473381        0.1277868377
 C        -7.6579189028        8.0841596625        0.9741683468
 O        -8.4072125127        9.0185660860        0.6320779871
 C        -6.9936016820        8.1445915583        2.3840145717
 C        -7.7539879188        8.9968456174        3.3929455634
 C        -9.1273445738        8.2608936793        3.9541147404
 O        -9.5578029979        7.3789424860        3.3295376371
 C        -9.8585217288        8.7220664558        5.4094262348
 C        -8.7866528741        8.5302704974        6.5254941320
 O        -8.2041437198        7.5102006229        6.7307223218
 C        -8.4586516816        9.7486134200        7.4705969637
 C       -10.2804065265       10.1853767858        5.0721992682
 C       -11.0859112477        7.7260851248        5.5675511899
 C        -6.1258725953        6.1626491295        0.0477442922
 C        -7.8699203013        7.3410438838       -1.4383902552
 C       -14.0236839723        5.4371414031       -2.1304975767
 C       -13.8114077948        5.9895226752        0.4613345628
 C       -14.0406882343       -0.3355000212        2.3853415753
 C       -11.7960477699        0.3019140346        3.2397795850
 C       -11.2582154535       -2.7616879393       -3.8700253911
 C        -9.1450028179       -3.6224247356       -2.9748550495
 C        -6.5116223299        3.7916550255       -3.1524654738
 C        -6.8744656453        3.3403805081       -5.7394961496
 H        -4.2456767266        3.2289059385       -4.5025461200
 H        -3.6013853783        1.5052780045       -4.4724148306
 H        -4.1508081555        2.2296853850       -2.8796645297
 H        -7.7930790144        0.5868493684       -5.8398180369
 H        -9.1492654492        1.5701799606       -5.8396809842
 H       -10.1853233738       -0.6996019727       -5.4745122532
 H       -10.5166431691        0.4354484498       -4.2314149933
 H        -8.7102972717       -1.6034567301       -0.4590432117
 H       -10.0687077297       -2.7086879556       -0.2773752747
 H       -10.2976587558        0.2351779958       -0.0173473867
 H        -9.9190078135       -0.6933754077        1.3995582763
 H       -12.8863740360        3.5274940454        1.9709543709
 H       -13.9177155394        2.5415971196        2.8756740395
 H       -15.3309195152        4.1527472350        1.3146750795
 H       -15.3831049774        2.3804014201        0.9420042794
 H       -10.4972621282        3.7308593249        0.3499593968
 H       -11.5368361303        4.9219366085        1.3485195777
 H       -10.4514341436        6.8294175888        0.7578542549
 H       -10.1705430732        6.1569395220       -0.8552302600
 H        -5.9858746667        8.4973922909        2.1410842996
 H        -6.9385791114        7.1073664408        2.7079131791
 H        -7.9915457154        9.9883676073        2.9994746506
 H        -7.0589721019        9.1691013527        4.2009304480
 H        -8.1957909077        9.1885734371        8.4490909937
 H        -9.2876358184       10.3336928603        7.7167445534
 H        -7.6829054563       10.3195153066        6.9912219948
 H       -10.5995161755       10.7870263762        5.8959149813
 H       -11.0609377735       10.2510233555        4.3710582635
 H        -9.4178484425       10.7479726507        4.7736779059
 H       -10.9955996221        7.1570194139        6.4638564240
 H       -11.1335046037        7.1799817783        4.6266304084
 H       -11.9984452348        8.2882504132        5.7056987748
 H        -5.4011767197        7.0239984450        0.1460979364
 H        -6.1393565045        5.7430854889       -0.9403414792
 H        -6.1029563998        5.4990504456        0.8216407757
 H        -7.9329184844        6.4805138175       -2.0535525836
 H        -6.9743737244        7.8374673232       -1.8557911277
 H        -8.6909361878        7.9178701156       -1.6214759657
 H       -14.0303759938        4.6083110351       -2.8621661452
 H       -13.2978872847        6.2299259348       -2.2489274960
 H       -14.9167825692        5.8597405285       -2.1893761467
 H       -13.1980881974        6.8459582097        0.2042637404
 H       -13.5124319595        5.5435222571        1.5578157262
 H       -14.8010602478        6.2770857287        0.5143989567
 H       -14.6297202392        0.5077089075        2.7871944177
 H       -14.1059132732       -1.1257561462        3.0678394626
 H       -14.7122175196       -0.6233734118        1.5270132117
 H       -12.1904323227        1.1036793261        3.7646026499
 H       -10.7890784678        0.3745852164        2.9194235182
 H       -11.8118165444       -0.5766917422        3.9079914658
 H       -11.1484243414       -3.0792568189       -4.8243064385
 H       -11.8860339399       -1.8590482568       -3.9593123588
 H       -11.8378910715       -3.3651346121       -3.1735988895
 H        -8.6199406489       -4.0114006932       -3.8418134150
 H        -9.9232273388       -4.3413168771       -2.7337090800
 H        -8.3503803562       -3.5876350718       -2.3169285353
 H        -7.3251107182        4.4526966788       -2.8699882387
 H        -5.7343370235        4.3867496071       -3.7620395845
 H        -6.2168051673        3.1708772644       -2.3401351792
 H        -5.9229946545        3.7109369214       -6.1709248881
 H        -7.4530345901        4.2149659247       -5.8772082610
 H        -7.3155238051        2.6913664174       -6.4174139371
 Na      -11.0199773439        1.5892020034       -1.9829162450
