117

 C       -13.1966435228       -0.3780931382       -8.8553209829
 C       -11.9196848177       -1.1560018224       -8.7484866287
 O       -11.8421208965       -2.2874679000       -9.1623675150
 C       -10.5747626378       -0.3963719461       -8.0444937991
 C       -11.0383143647       -0.0049053396       -6.5445372096
 O       -11.8903019177        0.8428507112       -6.4262759956
 C       -10.4005151653       -0.7043444305       -5.3859459338
 C       -11.0502516105       -0.3566084004       -4.0625689701
 C       -10.3399427251       -1.0104304245       -2.8448537501
 O        -9.9855532532       -2.1670588402       -2.7986334485
 C        -9.9888535858       -0.1218743539       -1.5113694273
 C       -11.1116894865        1.0447735355       -1.3582719698
 O       -10.9344094021        2.1642989245       -1.8157927870
 C       -12.3039659117        0.7643726577       -0.4176638119
 C       -13.1737352477        2.0285624988       -0.4459071246
 C       -12.4215367499        3.3038541781        0.0874703472
 O       -11.5889858044        3.2053652206        0.9665773233
 C       -12.9191128954        4.7391008042       -0.4178893199
 C       -12.7018775419        5.7388907452        0.6851050468
 O       -11.5886346164        5.8802120574        1.1573159634
 C       -13.8223228091        6.7112008078        1.0665424391
 C       -13.5509697041        7.2699343453        2.4359434647
 C       -12.1325641846        8.0330392025        2.4254126550
 O       -11.8636975078        8.8174937867        1.5347913938
 C       -11.1608999823        8.0111363238        3.6905202570
 C        -9.7435372397        7.7395030321        3.0983013741
 O        -9.4461299849        6.5654819240        3.0804120975
 C        -8.7217253795        8.8782233468        2.7229288794
 C        -7.3578624007        8.3410518647        2.3163721537
 C        -6.7013322135        7.9350125923        3.5956992476
 O        -7.1328693426        8.2753673037        4.6786444657
 C        -5.2708282230        7.1579824744        3.5216821790
 C        -5.8049243641        5.6841673257        3.4752100661
 O        -5.9992161254        5.0573037290        2.5012019671
 C        -6.0643572832        4.9955033773        4.8661895033
 C        -6.4434460665        3.4916753108        4.8720051446
 C        -7.5512658553        3.1655937727        3.8664227741
 O        -8.4581180777        3.9793236563        3.7586077909
 C        -7.4170149316        2.1126251765        2.7533417264
 C        -7.0110805609        2.8309916986        1.3322827718
 O        -7.8491753987        3.5784859195        0.7949657221
 C        -5.6859173454        2.4088824274        0.6638050960
 C        -6.3488957557        1.0686313173        3.0752198715
 C        -8.7219810204        1.3554946011        2.5379690461
 C        -4.5029578992        7.4156294703        2.1518811855
 C        -4.3483317708        7.3211401352        4.7438083570
 C       -11.2144112787        9.3478274153        4.4281170853
 C       -11.5701048052        6.8318105050        4.4859955339
 C       -11.9520549867        5.1299366759       -1.5912463427
 C       -14.3880925547        4.6797620121       -0.9462139926
 C        -9.9233138888       -1.1960716875       -0.3933817399
 C        -8.5661813097        0.4847066627       -1.7935861689
 C        -9.2822849698       -1.2314426068       -8.1318609122
 C       -10.3275927239        0.9551092528       -8.8057274242
 H       -13.9474487426       -0.9364592249       -9.3969764945
 H       -13.1798383912        0.4439539418       -9.6208520853
 H       -13.7466280565        0.1634397557       -7.9834052036
 H        -9.2990759023       -0.5635791745       -5.4859694758
 H       -10.5279994887       -1.8051158465       -5.5788904411
 H       -12.0896732810       -0.6771776761       -4.1324739715
 H       -11.2666733817        0.7134273931       -3.9781666143
 H       -11.7939641453        0.5831153042        0.5236082565
 H       -12.8861660105       -0.1838686920       -0.5801330370
 H       -14.1472442436        1.9800299951        0.1192261403
 H       -13.5492668644        2.2646895351       -1.5313912893
 H       -14.9065949243        6.3162823163        1.1405864000
 H       -13.7577812493        7.5492229454        0.4370192945
 H       -13.4318829923        6.4643612260        3.1384349745
 H       -14.3923136038        7.9029729603        2.7898226350
 H        -8.5586297843        9.4732924304        3.6702910827
 H        -9.1860911160        9.5068807937        1.9095139608
 H        -6.7733549547        9.1153576469        1.7121104620
 H        -7.3917877381        7.4987098418        1.6069597800
 H        -6.6489109632        5.7834325312        5.3832714735
 H        -5.0509176992        5.0194557350        5.2982038183
 H        -6.7526767277        3.2843541074        5.8634744884
 H        -5.6125962173        2.8401767045        4.7252856331
 H        -5.5130556606        1.3336483668        0.7312188037
 H        -4.7773337364        2.9475608374        0.9670094284
 H        -5.6123642875        2.5725517979       -0.4526874257
 H        -6.6071786055        0.7766240576        4.0864347129
 H        -5.3881672996        1.4794202878        3.0934048905
 H        -6.3905391341        0.1653517820        2.3433471393
 H        -9.5431832835        2.0066536905        2.5972159943
 H        -8.8403208647        0.5245201888        3.3069531353
 H        -8.7988948027        0.7920748954        1.6605872719
 H        -4.7272815262        8.3332958449        1.6198092108
 H        -4.8266724250        6.6600476857        1.4021722500
 H        -3.4062978968        7.4522532263        2.2158424709
 H        -3.3461328355        6.8330366301        4.6675960899
 H        -4.8183428364        6.9257724762        5.7211119600
 H        -4.1146921680        8.4143112018        4.7748837011
 H       -12.1694253737        9.5198491300        4.9292827753
 H       -10.8459042278       10.1588248581        3.8909288006
 H       -10.6620262706        9.1453281825        5.3615001639
 H       -11.5979332092        5.9121235590        3.9334648360
 H       -12.5600993114        7.0651239471        4.9030408822
 H       -10.9521550219        6.7693818413        5.3482235854
 H       -10.9250510245        5.3562997135       -1.2347978220
 H       -12.2555055492        5.9112949167       -2.2434211210
 H       -11.9259018165        4.2694944190       -2.3302352766
 H       -14.5013571595        3.9658943981       -1.7258225530
 H       -14.5570261333        5.6718568575       -1.3635796009
 H       -15.1914762212        4.4195629464       -0.2016693615
 H        -9.2132547969       -1.9816839589       -0.6898939281
 H       -10.8563580857       -1.7120351512       -0.2923558586
 H        -9.6610392048       -0.7264964094        0.6176668272
 H        -7.8216326447       -0.2919031927       -1.4301400119
 H        -8.2861019483        1.4349855280       -1.3495480773
 H        -8.4127537856        0.6566639448       -2.8446676488
 H        -9.5332170142       -2.2842869340       -7.8115011557
 H        -8.4821018093       -0.9277829333       -7.4960419567
 H        -8.7848852243       -1.3486610198       -9.0689064049
 H       -11.2643159162        1.4832534845       -8.7072239669
 H       -10.2364276698        0.6638908119       -9.8625411579
 H        -9.5283430970        1.5471542333       -8.3014447856
 Na       -9.8448809557        4.6817909233        1.5368410509
