117

 C        -4.2343481248        2.2404204717       -4.0132983982
 C        -5.6241003235        1.7224168619       -4.4178761486
 O        -5.8459602946        0.6420623118       -4.8734217430
 C        -6.8461281282        2.6194557193       -4.2663265512
 C        -8.1785024071        1.8036664406       -4.0475702607
 O        -8.8038885173        2.0837489599       -3.0475748481
 C        -8.6003373979        0.7886533386       -5.0919989354
 C        -9.5136241511       -0.2679624016       -4.5669808293
 C        -8.9492611611       -1.3888290539       -3.6476653718
 O        -7.8100631471       -1.3513193770       -3.1777240618
 C        -9.9524930012       -2.4611257052       -3.1239226674
 C       -10.5295237559       -1.6042992841       -1.8245003198
 O       -11.1535401010       -0.6437569701       -2.1256033248
 C        -9.8871606300       -1.7882428664       -0.4548194861
 C       -10.4029073446       -0.7139325844        0.5783370350
 C       -11.9627098779       -0.9112200621        0.8793207598
 O       -12.6251124655       -1.8941584039        0.5732495075
 C       -12.7865001788        0.2099345528        1.9239129227
 C       -12.7915896637        1.6011259465        1.2460277377
 O       -12.2240864047        1.8479309842        0.1332631995
 C       -13.6099299731        2.7627396152        1.8965514219
 C       -14.7618737874        3.3309471398        0.9583551589
 C       -14.3681129704        3.7164295893       -0.4905936975
 O       -14.7775288445        3.1941113854       -1.4214421311
 C       -13.3931829970        5.1336790659       -0.7759091053
 C       -11.9034417332        4.5368835874       -0.8908758379
 O       -11.6300688736        3.8592551918       -1.9019670092
 C       -10.9499004178        4.7079805657        0.3179692199
 C       -10.1020814284        6.0361655513        0.1614843795
 C        -8.5729173936        5.6569567045        0.3191532076
 O        -8.2195708747        4.5953647299        0.7516695259
 C        -7.4931594051        6.8122645322       -0.0827002278
 C        -7.7432137893        8.0847704901        0.9564327630
 O        -8.3104198305        9.1009263147        0.5854101950
 C        -7.0619724781        8.1344291597        2.4217989742
 C        -7.8536223674        8.9501188399        3.3899914354
 C        -9.0514309855        8.2823614241        3.9368306848
 O        -9.5011836331        7.2901235046        3.3375232928
 C        -9.7650144298        8.7898501308        5.2087865804
 C        -8.7600299236        8.6042182544        6.4717886381
 O        -8.4312557981        7.4553201906        6.5262685188
 C        -8.4267610768        9.7049288534        7.5411199890
 C       -10.1970152376       10.2645092770        5.1467794922
 C       -10.9358194259        7.8561357438        5.5288267203
 C        -6.0457525083        6.2531205383       -0.0563418659
 C        -7.9298291941        7.3148029793       -1.4425832351
 C       -13.9823506093        5.6753485428       -2.1360201127
 C       -13.7620249898        6.0368751906        0.3187645339
 C       -14.1820406472       -0.2153202169        2.3541660327
 C       -11.7705794193        0.3042000982        3.1709735614
 C       -11.1340108192       -2.6549373397       -4.1442217089
 C        -9.1139007203       -3.7679113104       -2.8695053885
 C        -6.6570672415        3.6121618491       -3.0819002995
 C        -6.9267242975        3.2887570913       -5.7418251115
 H        -4.0529528041        3.0894907442       -4.7253702610
 H        -3.6255552935        1.3663982896       -4.1844092409
 H        -4.2503722973        2.4813771130       -3.0207809741
 H        -7.6281800289        0.3907756267       -5.4172138872
 H        -9.0387282034        1.2331502368       -6.0020222200
 H       -10.1289453707       -0.7500430829       -5.2695110961
 H       -10.2715285246        0.2182956006       -3.9274114286
 H        -8.8175279097       -1.7361359865       -0.6843097375
 H       -10.1679151726       -2.8112090180       -0.0729655757
 H       -10.2779631921        0.2940805957        0.1913620407
 H        -9.7935425232       -0.7865232030        1.4690505638
 H       -13.1022232617        3.6530469958        2.3366369322
 H       -14.0876064097        2.3953969851        2.7742939456
 H       -15.1669925827        4.2560462892        1.4203745636
 H       -15.4590129650        2.4632158939        1.0761610469
 H       -10.2850403342        3.8519521802        0.2208932562
 H       -11.3433553624        4.7227363795        1.3454677613
 H       -10.3340811097        6.6461107353        1.0647899122
 H       -10.4933784527        6.4473766383       -0.7959178700
 H        -6.0993488314        8.4902016672        2.1675101007
 H        -7.0245651878        7.1498284313        2.7782098897
 H        -8.2492385847        9.9251601021        2.9379561249
 H        -7.2243132223        9.2635298793        4.2130746772
 H        -8.5362879690        9.3295733931        8.5567214423
 H        -9.2184512170       10.3854186770        7.4166068810
 H        -7.5289246202       10.2074910987        7.1987977222
 H       -10.7789348701       10.4142903980        6.0632476010
 H       -10.8146501872       10.5836834553        4.3484599842
 H        -9.4319962127       10.9716669084        5.3215011729
 H       -10.5076021505        7.2113885504        6.3203428533
 H       -11.4051167919        7.3348988286        4.6492635944
 H       -11.6294998343        8.3855993227        6.0785465624
 H        -5.4315431352        7.1009682978       -0.0044817608
 H        -5.9042903980        5.6507433953       -0.8531974507
 H        -6.1468994672        5.7515105880        0.9520466191
 H        -8.4296122288        6.5368215424       -2.0046564739
 H        -7.2242306783        7.7240750434       -2.0973832450
 H        -8.7513327979        8.0320779550       -1.2511866967
 H       -13.6120116858        5.0452575308       -2.9812846723
 H       -13.6967131132        6.7445317819       -2.1060267234
 H       -15.0948696932        5.6876797852       -2.2264854733
 H       -13.0915519046        6.9150400145        0.1524420854
 H       -13.7974868881        5.6872926279        1.2874839885
 H       -14.7639234110        6.3938111746        0.0590397399
 H       -14.7864894064        0.4229560854        2.9216490186
 H       -14.2358050815       -1.2197434848        2.7041406441
 H       -14.7754819860       -0.2366928373        1.4416468785
 H       -12.4267756647        0.6307419379        4.0048820161
 H       -10.9270958101        0.9123487016        3.0141283068
 H       -11.4181401070       -0.7014007357        3.4321438817
 H       -10.8410226989       -3.0609168553       -5.1432756742
 H       -11.6678438407       -1.7103420817       -4.3353778533
 H       -11.8952863308       -3.1433675734       -3.5938753378
 H        -8.6210681964       -4.2299553186       -3.6671499834
 H        -9.7539070952       -4.4272693991       -2.4082905505
 H        -8.2853113527       -3.5418889598       -2.2746681656
 H        -7.5067637920        4.2971385027       -2.9472549271
 H        -5.8385806352        4.1193589482       -3.3530330565
 H        -6.5776121668        2.9014116107       -2.2226766548
 H        -6.0323461456        3.8303150352       -5.9949134318
 H        -7.5446206722        4.1916263749       -5.6113804992
 H        -7.3167503983        2.8226147891       -6.6084997911
 Na      -11.0809260010        1.5959004657       -2.0369949764
