117

 C        -4.1469895202        2.2332625713       -3.8522326296
 C        -5.5268375699        1.8178245833       -4.3150309865
 O        -5.6311260847        0.8434671188       -4.9973208345
 C        -6.8376232724        2.4550648561       -4.0550852712
 C        -8.0552360021        1.5011909963       -3.8880801637
 O        -8.8656257746        1.7811034945       -3.0137419064
 C        -8.2684992219        0.3479744780       -4.8394334611
 C        -9.2757231948       -0.7579847367       -4.4873846454
 C        -8.8797159539       -1.6852124721       -3.3086311291
 O        -7.9265232082       -1.4160397762       -2.5843746442
 C       -10.1773567355       -2.7083682580       -2.8462750490
 C       -10.8771410787       -1.7605594830       -1.7891026946
 O       -11.6271650648       -0.8108384283       -2.1112915185
 C       -10.4222569345       -1.9906355966       -0.4035095944
 C       -10.6836983210       -0.8561612442        0.5542324640
 C       -12.1219184764       -0.7982918158        0.9186500406
 O       -12.8066695868       -1.7299462666        0.4889095317
 C       -12.7390620853        0.3514269738        1.7543973631
 C       -12.8009731097        1.6899136989        1.0230126561
 O       -11.8542001699        1.9211321691        0.2181418265
 C       -13.5167106324        2.8724868475        1.7474292719
 C       -14.7101430015        3.7021889531        0.8569100957
 C       -14.3474428639        4.1710195154       -0.4784415502
 O       -14.5800215206        3.5467544118       -1.4808950117
 C       -13.2423109812        5.2813314935       -0.7824893762
 C       -11.9908591965        4.4575659996       -0.8701657382
 O       -11.7041637619        3.8832445165       -1.9003502307
 C       -10.7816649999        4.5294590114        0.1926050710
 C        -9.9558981362        5.9953136845        0.2471115839
 C        -8.4774404333        5.8448646447        0.2835080706
 O        -8.1052783484        4.8170770741        0.7214335184
 C        -7.5167271494        6.9625049560       -0.3188328989
 C        -7.7880110578        8.2507430570        0.7571079814
 O        -8.3483875196        9.2901880050        0.4059951829
 C        -7.2765510238        7.9630341545        2.2751056741
 C        -7.9581450186        8.8525346740        3.3312720782
 C        -9.1107168549        8.0813475884        3.8931442784
 O        -9.5652465343        7.1289115502        3.2890906444
 C        -9.6864091997        8.8896330673        5.1416312559
 C        -8.8163473970        8.4997625304        6.3469545067
 O        -8.3102998949        7.4023395857        6.2905210706
 C        -8.3434062363        9.3793126865        7.3394009192
 C        -9.7333289714       10.3784973408        4.8609560474
 C       -11.2000733072        8.4127488494        5.2543262732
 C        -6.1238418483        6.3157665537       -0.1507671470
 C        -8.0001033764        7.3083474767       -1.6696530971
 C       -13.5202390685        5.9695128020       -2.2019311114
 C       -13.2099772280        6.3983248684        0.2832615657
 C       -14.3051173856        0.0684654818        1.9868721826
 C       -12.0826661696        0.5770604900        3.0700477736
 C       -11.0762407960       -3.1644171994       -4.0242121734
 C        -9.6749250233       -3.8861575596       -2.0183516685
 C        -6.6037056038        3.5321447607       -2.8141231818
 C        -7.2387674128        3.1215246400       -5.4067118390
 H        -3.8388328411        2.9043072680       -4.7493157937
 H        -3.5142395289        1.3528990270       -3.8064391543
 H        -4.2833239152        2.6131194225       -2.8655345165
 H        -7.3650067609       -0.2030754976       -5.0523693760
 H        -8.5276547058        0.7715010681       -5.7781393058
 H        -9.5634509902       -1.3764753154       -5.3613857357
 H       -10.2977651595       -0.4735450702       -3.9612947865
 H        -9.3829205244       -2.2626649311       -0.4253757305
 H       -11.0529357626       -2.7810245274       -0.1467562893
 H       -10.5479424394        0.1116741134        0.0271310702
 H        -9.8313214924       -0.8825441324        1.2923627306
 H       -12.7972883155        3.6786161912        1.9635957138
 H       -13.9111324422        2.7367018278        2.7325869040
 H       -15.1148244283        4.4927067205        1.4928807962
 H       -15.4017762873        2.9239271582        0.7725621949
 H       -10.0200357500        3.6960320789        0.1121006020
 H       -11.2976536166        4.5248990725        1.2294174361
 H       -10.1687514175        6.3109725556        1.2534838014
 H       -10.3209666294        6.6215231630       -0.4964629178
 H        -6.1597653040        8.2249170161        2.3555784160
 H        -7.4110448582        6.8550304685        2.4694982708
 H        -8.3100553798        9.7769916417        2.8685597907
 H        -7.2379309475        9.1152323562        4.0629357855
 H        -8.7674442976        8.8846023734        8.2854929405
 H        -8.7502645008       10.3367944268        7.2968522823
 H        -7.2494073012        9.4191364772        7.1282896578
 H       -10.1229739815       11.0274300655        5.7010461291
 H       -10.3091543521       10.4911741653        3.9460926355
 H        -8.7411413953       10.8652900943        4.6364164033
 H       -11.5128620136        8.5098545620        4.1818973594
 H       -11.7584384258        9.2127088063        5.8092539038
 H       -11.3282702849        7.4547777104        5.6301648204
 H        -5.4210927758        7.0962926021       -0.5266242343
 H        -6.2175893915        5.4135097686       -0.6693342792
 H        -6.1247445451        6.0948913236        0.9722302188
 H        -8.2526177557        6.4417224439       -2.2986843824
 H        -7.2849338454        7.9660710843       -2.1995804361
 H        -8.9265540780        7.8767511785       -1.5958864660
 H       -12.7617750187        5.5407218162       -2.8669577724
 H       -13.7020210078        6.9717792912       -2.1550369585
 H       -14.4344594668        5.5437557541       -2.4748419415
 H       -12.5834742141        7.3449089864        0.1185535639
 H       -12.9899604720        5.8775098950        1.1853632327
 H       -14.2385273224        6.6048722673        0.4913692119
 H       -14.6967477850        0.6395951630        2.8527622292
 H       -14.3426292399       -0.9923518368        2.1724995854
 H       -15.1662388992        0.3605945085        1.2746353659
 H       -12.7006776967        0.7681565209        3.9589154142
 H       -11.4122967115        1.3717899496        2.9253646750
 H       -11.4594759311       -0.3652989894        3.1867999068
 H       -10.4051949362       -3.1368382991       -4.8398255914
 H       -11.9666345801       -2.5264434035       -4.1896013502
 H       -11.4808860900       -4.1596597408       -3.9507486485
 H        -9.1951951296       -4.6062516483       -2.8027222504
 H       -10.5299857203       -4.3553619534       -1.4312412725
 H        -8.7913173287       -3.7424500476       -1.3220628836
 H        -7.5091105217        4.1760033000       -2.6461382834
 H        -5.8442503666        4.0801781679       -3.3037270419
 H        -6.1390090106        2.9999597325       -1.9180540289
 H        -6.7933509507        4.1219391261       -5.6910910414
 H        -8.2892638352        3.4055231639       -5.4536758305
 H        -7.1097543724        2.4703229381       -6.2052783316
 Na      -10.9497538829        1.5897426530       -1.9924265341
