117

 C        -4.1540739374        2.3759095800       -3.6089102517
 C        -5.3479358397        1.7460796120       -4.3967275548
 O        -5.1611422108        0.8944531804       -5.2785998466
 C        -6.8251547874        2.2429784697       -3.9674270983
 C        -8.0154989226        1.2676755324       -3.7592449241
 O        -8.7919038947        1.4403204446       -2.8037973022
 C        -8.0297927799       -0.0220001430       -4.5480517938
 C        -9.2819291747       -0.8355815470       -4.4069301082
 C        -9.1022571925       -1.9159608329       -3.1287352755
 O        -8.2044747840       -1.6804268862       -2.3973369524
 C       -10.2777504834       -2.8994084339       -2.5959885073
 C       -10.8907017685       -1.8324755949       -1.6680147463
 O       -11.5069503775       -0.8868258011       -2.1172042956
 C       -10.4066303077       -1.7923781012       -0.2027297454
 C       -11.0061375947       -0.6814040473        0.6683050972
 C       -12.5651795059       -0.7227555171        0.9674242187
 O       -13.2847483110       -1.5158011015        0.4918629381
 C       -13.1128801982        0.5374221222        1.7426691985
 C       -12.7776223993        1.9586463802        1.0817720989
 O       -12.0048294501        2.0066603896        0.1980153789
 C       -13.3366560351        3.2116391184        1.6941098264
 C       -14.4386097475        3.7362528228        0.8352436809
 C       -14.0965362574        4.2340375143       -0.6792803474
 O       -14.7118986802        3.7073764154       -1.5811580191
 C       -12.9609619470        5.4155575225       -0.9004549846
 C       -11.7062141254        4.6077822942       -1.0112727829
 O       -11.5556583768        3.8872890081       -2.0165058422
 C       -10.6066109943        4.6559310288        0.1265171779
 C        -9.9103778319        6.0137461809        0.2565325078
 C        -8.4417100953        5.8303178736        0.2557325992
 O        -7.9317612554        4.7824949698        0.7004165567
 C        -7.5460340261        7.0095996538       -0.3704582385
 C        -7.7337127750        8.0930601715        0.6201740223
 O        -8.3453417232        9.1065467369        0.3363028195
 C        -7.0835730904        7.8919579196        1.9606205031
 C        -7.8693424763        8.6467150901        3.0510745577
 C        -9.2943915245        8.2309215934        3.6734426141
 O        -9.7948092812        7.1723378742        3.3751367542
 C        -9.7088291022        9.0520061941        5.0038437447
 C        -8.8668681982        8.3588539434        6.0669426224
 O        -8.3752766438        7.2520286585        6.1624409324
 C        -8.4884619228        9.2581844548        7.3007195998
 C        -9.4791530900       10.5354963522        4.8217485468
 C       -11.1854922932        8.7325529184        5.3160308909
 C        -6.0202131771        6.6211765626       -0.4037640598
 C        -8.0064995885        7.4501827011       -1.7858684632
 C       -13.4125269998        6.2081114255       -2.1273665933
 C       -13.0795050804        6.3398766909        0.3594378025
 C       -14.5363375458        0.2176435444        2.0614083207
 C       -12.3142291133        0.5108374709        3.0960967713
 C       -11.2610540547       -3.2324585588       -3.6938193069
 C        -9.4801225072       -4.1357792734       -2.1839049477
 C        -6.9495250687        3.2691236268       -2.8046635650
 C        -7.2979289836        3.2417545483       -5.1006377205
 H        -4.0076105374        3.3314637195       -3.9329446563
 H        -3.3160016744        1.7524504490       -3.8250389718
 H        -4.4249098272        2.1392558828       -2.5380442638
 H        -7.1517933641       -0.5684929589       -4.1352444528
 H        -7.8103213576        0.1399107274       -5.6277930356
 H        -9.4485063727       -1.4231891584       -5.3096870113
 H       -10.1220902453       -0.2761770587       -4.1475643446
 H        -9.3328319431       -1.5385502769       -0.3572397478
 H       -10.5350745753       -2.8528895625        0.2117790472
 H       -10.5474339905        0.2472400307        0.3344609084
 H       -10.4957842734       -0.8235267123        1.6013410969
 H       -12.7386791878        4.0097381437        2.1124842089
 H       -13.9884460944        2.9175278371        2.5412677111
 H       -14.8000879447        4.6126003349        1.4815521863
 H       -15.2558954762        2.9478614177        0.9931279096
 H        -9.7501353524        4.0357959823       -0.1378169298
 H       -11.0149747067        4.2614110950        1.0346679773
 H       -10.1034457663        6.4074935828        1.2888439932
 H       -10.1963944729        6.7311869252       -0.6210327607
 H        -6.1486876290        8.3880440676        1.9872242907
 H        -6.8215761041        6.8453157156        2.1592636766
 H        -7.9707946500        9.6631371189        2.6558887737
 H        -7.0858180400        8.7381410192        3.8597185178
 H        -8.7222464089        8.6155723131        8.1770321687
 H        -9.0511909672       10.1991790423        7.3115160322
 H        -7.4538198453        9.4390556341        7.1571030371
 H       -10.0549254349       11.0860509227        5.5146672442
 H        -9.6720938958       10.8347054099        3.7977230204
 H        -8.4422204397       10.7484843062        4.9240799368
 H       -11.7090689850        9.6233101654        5.5500718324
 H       -11.3224291672        8.0176851096        6.1290850841
 H       -11.6056535621        8.1481984458        4.4036628766
 H        -5.6399587719        7.6054547181       -0.5536600815
 H        -5.9837489447        5.9388905119       -1.2623824038
 H        -5.7460539119        6.1710844801        0.4246391494
 H        -7.8028009677        6.6808907460       -2.4733780437
 H        -7.4909069844        8.3713735982       -2.0788580909
 H        -9.0019184358        7.7294929183       -1.9767209047
 H       -12.7075928609        5.8751219788       -2.9197289506
 H       -13.3315880557        7.3627327739       -1.9583084223
 H       -14.4760022347        6.0331158329       -2.2817810172
 H       -12.3249102392        7.0200606045        0.2647234519
 H       -12.8382793973        5.7567102780        1.3924956927
 H       -14.0533815185        6.7700330339        0.5108498934
 H       -15.0845876394        1.1027364353        2.3708679142
 H       -14.6527462561       -0.6384088505        2.7027416779
 H       -15.0333330634       -0.0438065737        1.1697738200
 H       -12.5417055225        1.4074317759        3.6439326020
 H       -11.2241125693        0.6668899856        2.9094785661
 H       -12.5737052561       -0.3688087603        3.6083558746
 H       -10.8587506311       -3.9782325186       -4.4091709652
 H       -11.4905078869       -2.2737159637       -4.1443115545
 H       -12.2123266640       -3.6772485834       -3.2926767521
 H        -9.2040783319       -4.5447837383       -3.0953693339
 H        -9.9362753621       -4.8308814691       -1.5475975880
 H        -8.6382139972       -3.8313767638       -1.6318528038
 H        -7.9833058110        3.3882789688       -2.6697186874
 H        -6.3789174416        4.2240949648       -3.1417275214
 H        -6.4454162552        2.9121712667       -1.9710449446
 H        -6.5707355368        3.9520811288       -5.4126104829
 H        -8.2292269029        3.7700272462       -4.9940584193
 H        -7.3511448721        2.6697341699       -6.0590746025
 Na      -10.9333864216        1.3501356254       -1.9335203567
