117

 C        -4.2691145157        2.3829135281       -3.3590585112
 C        -5.4380258604        1.8821778542       -4.2858933255
 O        -5.3709389053        1.0931251984       -5.1541911938
 C        -6.9086176228        2.2671620157       -3.8900934449
 C        -7.8856809806        1.0296657119       -3.6705695900
 O        -8.7288022135        1.0416804717       -2.7987377860
 C        -7.7520167427       -0.2002269090       -4.5236094662
 C        -9.0354526138       -1.1254083574       -4.3838184984
 C        -9.0365938317       -1.9404998816       -3.0471363984
 O        -8.0814485507       -1.9889742538       -2.2924478141
 C       -10.3172273839       -2.7604861739       -2.5059806639
 C       -10.8513141117       -1.8523254786       -1.4820692796
 O       -11.5227818049       -0.9246624337       -1.9168915868
 C       -10.5615404145       -1.9803380272       -0.0305693969
 C       -11.1389070024       -0.9009325087        0.9075229352
 C       -12.6837691693       -0.6409089576        1.0009386050
 O       -13.4456649063       -1.3577776113        0.3470662636
 C       -13.2476951071        0.6731834724        1.8859626446
 C       -12.8598322647        2.0228743113        1.1595294792
 O       -12.3005782505        2.0522816618        0.0538339999
 C       -13.5968774787        3.2301366674        1.7878319486
 C       -14.6485259636        3.9352606233        0.7327544295
 C       -14.1131765968        4.2971552065       -0.6783402313
 O       -14.6384742335        3.8883921393       -1.6359145103
 C       -12.8106974293        5.4197741295       -0.8089616364
 C       -11.5056084143        4.5353406026       -1.1032954372
 O       -11.5194861473        3.8226717692       -2.0842352732
 C       -10.3956553615        4.5389621766       -0.0555222464
 C        -9.7469673569        5.9413106720        0.0624815568
 C        -8.1518976593        5.7363888754       -0.0488392233
 O        -7.4931847339        4.8353281886        0.4219945780
 C        -7.3971502813        7.0973562953       -0.4797074250
 C        -7.7068478476        8.0933638630        0.6006379232
 O        -8.4012796976        9.0137987401        0.3395445868
 C        -7.2404043339        7.7454457587        1.9923933689
 C        -7.8412027924        8.7636619563        3.0189661201
 C        -9.1653289686        8.4824018400        3.5505361854
 O        -9.7782025757        7.5405364560        2.9967373605
 C        -9.6179857995        9.0715150492        4.9875727384
 C        -8.8443553942        8.4057968193        6.1442761005
 O        -8.5364111004        7.2241918725        5.9651567600
 C        -8.6469303259        9.1093061389        7.4510149288
 C        -9.2847960413       10.5544879167        4.7334939908
 C       -11.1375662817        8.8296021363        5.2260693833
 C        -5.9138539493        6.7311857176       -0.7940572767
 C        -7.9220917148        7.4781609637       -1.8698758600
 C       -13.1739851341        6.1672821137       -2.1650817747
 C       -12.8859073673        6.4480444666        0.3572929157
 C       -14.7247198739        0.6313069470        1.9645363634
 C       -12.6070006246        0.5087643578        3.3194750667
 C       -11.3572169447       -3.1066751200       -3.5831629756
 C        -9.7934693606       -4.1440204463       -1.9614463376
 C        -6.8644234118        3.0096981166       -2.5437520651
 C        -7.3178618434        2.9189832055       -5.1626510804
 H        -4.3571580254        3.5091866540       -3.3273809876
 H        -3.3186013643        2.0698402642       -3.8883147903
 H        -4.4023065432        1.8300629026       -2.5117695325
 H        -6.7905883191       -0.5305118973       -4.0624613761
 H        -7.5424868382        0.0081687492       -5.5734557234
 H        -9.0851090544       -1.9530049526       -5.0701940547
 H        -9.9758827652       -0.4662067791       -4.2805251212
 H        -9.4535175670       -2.0774738649        0.0321698581
 H       -11.0501292831       -2.9157158570        0.1428515056
 H       -10.6152483066        0.0490171250        0.6424202646
 H       -10.7369558837       -1.1208165994        1.9373306472
 H       -12.6989766984        3.9205573695        1.9346397161
 H       -13.9828497778        3.0475466838        2.7872883917
 H       -15.1916944891        4.7678249115        1.0965079483
 H       -15.3680608085        3.1235787090        0.6140821669
 H        -9.5580283535        3.8153003288       -0.1816160773
 H       -10.9374200887        4.2171605614        0.8523139400
 H       -10.0248141485        6.3608997141        1.0705379015
 H       -10.0005778315        6.5673436070       -0.7390789668
 H        -6.0904528732        7.6861367126        1.9941042200
 H        -7.5115819504        6.6912331960        2.2725266771
 H        -7.8482722552        9.7798484816        2.5592689408
 H        -7.2290537882        8.8074069617        3.9030981022
 H        -8.3150126865        8.4102259581        8.1127313197
 H        -9.6289169379        9.5956459451        7.7078950652
 H        -7.8217057407        9.8485117935        7.2266127377
 H        -9.9671391486       11.1276571994        5.4415721787
 H        -9.5433575334       10.9156555480        3.7246491246
 H        -8.1790962472       10.7333861586        4.8146995842
 H       -11.2166481732        8.5378023256        6.3216592523
 H       -11.4531704975        7.9894965519        4.5768598656
 H       -11.8350207242        9.5686002399        4.9818434432
 H        -5.4524791691        7.6964900339       -0.9360046053
 H        -6.0795017103        6.0925237814       -1.6302545285
 H        -5.5777471432        6.0637009223        0.1266051323
 H        -7.8674275873        6.6242936567       -2.6108809931
 H        -7.4256171722        8.3607519612       -2.2276330029
 H        -8.9866083679        7.8636354328       -2.0187394877
 H       -13.1536172275        5.4410479596       -2.8955047080
 H       -12.3436017978        6.7600100235       -2.3508264793
 H       -14.0158567080        6.9108868619       -2.0092138000
 H       -12.3657259594        7.3878982882       -0.0257928863
 H       -12.4772493307        6.2453091146        1.2492004342
 H       -13.9588705760        6.6562975636        0.5239191841
 H       -15.2363049344        1.5621169748        2.2725943982
 H       -15.1500803746       -0.2361207345        2.5622147287
 H       -15.0764502637        0.4703279736        0.9006402703
 H       -12.7716524108        1.4583239612        3.9040126807
 H       -11.5411789943        0.5096739173        3.3680469293
 H       -13.1281438723       -0.3683820112        3.7726249402
 H       -11.0212500264       -4.0260936352       -4.1131490706
 H       -11.4954305219       -2.2046881403       -4.2071804369
 H       -12.2926820642       -3.4534993085       -3.1565038459
 H        -9.3610316028       -4.7761598024       -2.7885106064
 H       -10.5661664178       -4.7367729784       -1.4284745221
 H        -9.2260838742       -3.9477386965       -0.9925445928
 H        -7.8982339724        3.4289438430       -2.3516881189
 H        -6.0852585618        3.6370550321       -2.3541215777
 H        -6.7437884054        2.1220645951       -1.8307729098
 H        -6.6639863252        3.7457451179       -5.4597732745
 H        -8.3159044712        3.4334945305       -5.0643844359
 H        -7.2131272959        2.4054916013       -6.1147570590
 Na      -10.9932728992        1.4872837987       -1.8590543827
