117

 C       -13.0947942621       -0.3670453835       -8.8120050000
 C       -11.8207611176       -1.1063501804       -8.7868021657
 O       -11.6915235240       -2.3408560238       -8.9401451387
 C       -10.6551438105       -0.3780573193       -8.0568103101
 C       -11.1182902885       -0.0383912249       -6.5560420273
 O       -11.9157731167        0.8804295307       -6.3136269073
 C       -10.4639193212       -0.7642424080       -5.2600923007
 C       -11.1394598406       -0.4272285112       -3.8866338161
 C       -10.3170926398       -1.0506040771       -2.8272253687
 O        -9.8542817316       -2.1950087625       -2.9007916961
 C        -9.9834365299       -0.1776768324       -1.5274123846
 C       -11.0120822105        0.9622786128       -1.2643737135
 O       -11.0214663964        2.0470355559       -1.8107384193
 C       -12.1498968434        0.7264519348       -0.3335121307
 C       -13.1364340274        1.8732445682       -0.3116622155
 C       -12.5197073135        3.1775718813        0.1293266458
 O       -11.6718704740        3.1775362223        0.9938095698
 C       -12.9903432318        4.6461645494       -0.4151807111
 C       -12.6567556964        5.7633725416        0.6031510262
 O       -11.6024759728        5.8712752324        1.2078612861
 C       -13.7601596926        6.7799635976        0.9760150342
 C       -13.4033753696        7.3107647437        2.4685401419
 C       -12.1576289863        8.2016069012        2.3684630587
 O       -11.9181202520        8.6994503089        1.2934188342
 C       -11.2133705989        8.1166706827        3.6668878384
 C        -9.7712587941        7.7257711190        3.0255378832
 O        -9.4193580231        6.5699010087        2.9088775659
 C        -8.9343466898        8.8237366234        2.4820393348
 C        -7.5495331643        8.2389002786        2.2785247264
 C        -6.6732189994        8.0241908743        3.5409221869
 O        -7.0402083520        8.3188150959        4.6706951956
 C        -5.2733218519        7.1479022945        3.4294750057
 C        -5.7647006114        5.5663020268        3.4445577704
 O        -6.0085123500        5.0564626428        2.3646964428
 C        -5.9846446227        4.9654873849        4.8681203975
 C        -6.3157746720        3.5243484125        4.6967525298
 C        -7.4752104933        3.3213647852        3.7116917168
 O        -8.5345668941        3.9568688284        3.7030859257
 C        -7.2901857115        2.1074150139        2.7238476864
 C        -7.1501820141        2.8051541279        1.3698557266
 O        -7.9425302435        3.5705002136        0.8738525959
 C        -5.8118575509        2.7167622295        0.6648674359
 C        -6.1279068726        1.0057592878        3.0109541906
 C        -8.7154726200        1.3533879856        2.6704241078
 C        -4.5473371951        7.3912410877        2.1062010505
 C        -4.3438768579        7.5645787317        4.5323500664
 C       -11.2070956730        9.5174462746        4.3186521368
 C       -11.4789339474        6.9065715123        4.5939322806
 C       -12.0442964451        5.0963575062       -1.5858027723
 C       -14.5045669842        4.6371489581       -0.7331924616
 C        -9.9697401526       -1.1393622543       -0.3605174701
 C        -8.5995453368        0.5195973433       -1.7694248797
 C        -9.4158630017       -1.2338526188       -8.0898872567
 C       -10.3131370382        0.9784308419       -8.7081580147
 H       -13.9977513278       -0.9975575179       -9.0552344820
 H       -13.2884064221        0.3755060703       -9.5314046377
 H       -13.2852466585        0.1522435212       -7.8714056185
 H        -9.4134962679       -0.3491300141       -5.2014577832
 H       -10.3155508977       -1.8125741036       -5.3944858919
 H       -12.2046170464       -0.7359982051       -3.8284398738
 H       -11.2655701875        0.5850300675       -3.7729867473
 H       -11.7331531158        0.4776579452        0.6416046381
 H       -12.7209162794       -0.1811043896       -0.6302579262
 H       -14.0517472467        1.5621370006        0.2576500841
 H       -13.5183605769        2.0882514546       -1.3309573534
 H       -14.7572968460        6.3966922491        1.1461430708
 H       -13.7670049193        7.6452149297        0.3296050060
 H       -13.3083232674        6.5118116938        3.2113403611
 H       -14.2355459016        7.9303639397        2.7530189881
 H        -8.9941313101        9.7179459430        3.0711611379
 H        -9.4179201861        8.9307551928        1.4976960428
 H        -6.9756126505        8.8277437194        1.5592227715
 H        -7.6264129456        7.2917317894        1.7481863792
 H        -6.7708905080        5.6302981561        5.1416166288
 H        -5.1330268101        5.1595913432        5.4313618931
 H        -6.7254719819        3.1396962262        5.6012755709
 H        -5.5180193452        2.8999748023        4.4456623946
 H        -5.3827287270        1.6908065759        0.4196125453
 H        -4.9989156075        3.2999977651        1.0740584356
 H        -5.8570380033        3.1782404644       -0.3309522340
 H        -6.1038223693        0.8015116845        4.0357829420
 H        -5.1011273573        1.4414707977        2.7688735249
 H        -6.3057997412        0.1179428115        2.4112778121
 H        -9.4744829921        2.0302948378        2.3929159617
 H        -8.9970879233        0.9568043764        3.6240531518
 H        -8.8298231443        0.4346757903        2.0008853507
 H        -4.8296618172        8.2648866087        1.4657603414
 H        -4.7576821323        6.5610598208        1.3945393688
 H        -3.5205845216        7.5020445688        2.2101523979
 H        -3.2461779553        7.3122272286        4.4149253532
 H        -4.6460903432        7.1036360316        5.5173533703
 H        -4.3602752021        8.7011536310        4.5357273563
 H       -12.1852702780        9.7859828119        4.7022436835
 H       -10.7372004127       10.3377523866        3.6977487329
 H       -10.7358471929        9.4006290733        5.2748091136
 H       -11.3530031715        5.9767655231        4.0183899006
 H       -12.3578313338        6.8662470958        5.1032142381
 H       -10.7737222307        6.9759775867        5.3730131232
 H       -11.0052569827        4.9357408557       -1.3252312583
 H       -12.2134519849        6.1076890965       -1.9135893859
 H       -12.2765718414        4.5298655570       -2.5356928052
 H       -14.7671766549        3.9360210737       -1.5445683668
 H       -14.6847088896        5.6281790203       -1.1272785030
 H       -15.1835925930        4.4265692289        0.1357127074
 H        -9.3340136116       -2.0028105996       -0.5299029606
 H       -10.9366201821       -1.5210836657       -0.1001606193
 H        -9.6410044613       -0.5503469236        0.4567754576
 H        -7.9549893985       -0.0899750673       -1.1690637884
 H        -8.4410464626        1.5241523671       -1.3749938555
 H        -8.2363538658        0.5379645204       -2.8094422829
 H        -9.6619310426       -2.2271353705       -7.9401742075
 H        -8.6033068801       -0.9848276524       -7.3769872970
 H        -8.8479938861       -1.2048548759       -9.0070001123
 H       -11.2188317139        1.5586182576       -8.6240571145
 H       -10.0924413658        0.7705705721       -9.7689679236
 H        -9.5436096431        1.4818944455       -8.0729452949
 Na       -9.7323128724        4.5878841978        1.7552757413
