117

 C        -4.4506956668        2.1319578425       -3.1502769616
 C        -5.5938119948        1.6156346309       -4.0615164873
 O        -5.3894360275        1.0000519828       -5.0438917289
 C        -7.1304522148        2.0576975299       -3.6153291699
 C        -8.0050871636        0.7500845624       -3.4584985540
 O        -8.9790997823        0.7248453501       -2.7046007315
 C        -7.6677000690       -0.4584927614       -4.3080288886
 C        -8.6866183567       -1.5683858357       -4.2484646073
 C        -8.8348394674       -2.1551587738       -2.7655489731
 O        -7.8897538482       -2.4540667776       -2.0603435546
 C       -10.2618714517       -2.5927369569       -2.2922809673
 C       -10.8731885762       -1.5486172911       -1.2402444904
 O       -11.2863905259       -0.4111113973       -1.6030470648
 C       -11.0570462920       -2.0759941887        0.2254165954
 C       -11.4466757859       -0.9385232423        1.1653607416
 C       -12.9489919815       -0.4954974539        0.9764277605
 O       -13.6542700465       -1.0881802014        0.1509593556
 C       -13.5847593745        0.6012057808        1.8457536571
 C       -13.1714797901        1.9840344052        1.0997867850
 O       -12.4129190060        2.0538105491        0.1751795554
 C       -13.5631748897        3.4744321799        1.7466985257
 C       -14.4963970727        4.2310555387        0.7272273494
 C       -13.8916541990        4.4144063122       -0.6757371776
 O       -14.4720741035        3.9325413074       -1.5748192406
 C       -12.6354049025        5.3580388341       -0.8871729397
 C       -11.4312064292        4.3004039360       -1.0919633919
 O       -11.6063272540        3.5770192055       -2.0843859395
 C       -10.3065264585        4.4496465280       -0.1238563929
 C        -9.4388701914        5.7263838089       -0.2932926230
 C        -7.8679353546        5.7140619208       -0.3668520661
 O        -7.2691408199        4.6826147316       -0.3826109040
 C        -7.3666197489        7.0763817201       -0.6477396775
 C        -7.7179849038        8.0580265961        0.4944771260
 O        -8.2722991258        9.0664134113        0.2119964200
 C        -7.0516828558        7.7375455234        1.9245240181
 C        -7.4822449308        8.6585136286        3.0971530327
 C        -9.0390624599        8.5613339208        3.3842298337
 O        -9.9405880050        8.1336935713        2.6572470268
 C        -9.5790206312        9.2655990208        4.6917799056
 C        -8.9959799147        8.3262484156        5.9653737855
 O        -8.4140361187        7.2524786516        5.7773642673
 C        -8.8833078196        8.8215797358        7.3749928249
 C        -9.1531452916       10.7919784467        4.9419822297
 C       -11.1534732983        9.0182918103        4.8821048407
 C        -5.6797391169        7.1025141536       -0.7974648683
 C        -7.8226020622        7.6948737787       -2.0235301584
 C       -12.6622317625        6.1595013832       -2.3086249192
 C       -12.4113597471        6.3017558312        0.2183606504
 C       -15.1110525392        0.3691741056        1.8162524053
 C       -13.1192916715        0.8772622532        3.1918111082
 C       -11.2783757713       -2.6238690847       -3.4688705401
 C       -10.1564457261       -4.0179479383       -1.7046742410
 C        -7.1210123756        2.8875418399       -2.2835193402
 C        -7.7808242797        2.7394677351       -4.8105257187
 H        -4.2090284790        3.1454032666       -3.5323063684
 H        -3.6129508219        1.4685345986       -3.2872827704
 H        -4.7767403849        2.0947340140       -2.2050993499
 H        -6.6987129254       -0.8190491707       -3.8835376846
 H        -7.4514462089       -0.1218259146       -5.3442462106
 H        -8.3032825770       -2.3448128041       -4.8357144045
 H        -9.6695660438       -1.2315827263       -4.3808363819
 H       -10.0307102809       -2.6124478442        0.3648558915
 H       -11.8118268072       -2.8695656679        0.1262834910
 H       -11.0056125345        0.0122580143        0.8901935159
 H       -11.0650888253       -1.1352958930        2.1445574685
 H       -12.6811415504        4.0811782729        2.0676541218
 H       -14.1702955724        3.1426614296        2.5953018171
 H       -14.7735928413        5.2690230663        1.1229787057
 H       -15.4618972935        3.8656385896        0.4559713849
 H        -9.8711244457        3.4830932741       -0.0718802159
 H       -10.8878789588        4.4741648158        0.8057296314
 H        -9.8860992157        6.4386274408        0.4922871982
 H        -9.6925143702        6.1592824203       -1.2880122002
 H        -5.9874819361        7.7395500154        1.7281382567
 H        -7.2659577173        6.7296383132        2.2428439112
 H        -7.1763010096        9.6627080086        2.8159332239
 H        -6.9532128259        8.3784413211        4.0592010080
 H        -8.3660734620        8.1577830357        7.9835178251
 H        -9.8969922048        8.9777139738        7.7216831303
 H        -8.3194901442        9.7922295399        7.2793825060
 H        -9.6617916268       11.1708487404        5.8142678959
 H        -9.5633543716       11.3320748662        4.1483011993
 H        -8.0815578945       10.8773418748        4.9432212551
 H       -11.6114340022        8.3044140294        4.1031774702
 H       -11.7838742813        9.9252441741        4.8232873412
 H       -11.3891246967        8.6007600308        5.8304536629
 H        -5.4504102609        8.0681656235       -1.1754930600
 H        -5.5847171922        6.3474595714       -1.4799105366
 H        -5.2351498287        6.8670769015        0.2494563386
 H        -8.0897851274        7.0054020222       -2.7946853435
 H        -7.0705757616        8.3042712814       -2.4840458070
 H        -8.6829398939        8.2999993109       -1.9294287068
 H       -13.1136363222        5.4561747622       -3.0719537779
 H       -11.6632992467        6.4758452015       -2.7238359604
 H       -13.3378303750        7.0952877954       -2.0479765042
 H       -11.5190006910        7.0332940544        0.1576791997
 H       -12.3507324452        5.8322902517        1.0870900739
 H       -13.3170627671        6.9242337720        0.3085848941
 H       -15.6418601414        0.6879121839        2.6863065013
 H       -15.2221267323       -0.6900335525        1.9631076774
 H       -15.5879294787        0.5303742995        0.8306208629
 H       -13.7740652961        1.4944055640        3.7780253834
 H       -12.1415107001        1.3203782911        3.1288388004
 H       -13.0130986234       -0.0751765295        3.7853846624
 H       -10.8093642250       -2.9488871349       -4.3756105932
 H       -11.6099140121       -1.5731198120       -3.6153866910
 H       -12.0161846101       -3.3575352883       -3.1501962445
 H       -10.1361629114       -4.7226700248       -2.4940405329
 H       -11.0554021227       -4.2475022220       -1.2429817704
 H        -9.4377677702       -4.2400579345       -0.9590527203
 H        -8.1834440805        2.8888811970       -1.9560012327
 H        -6.7578618118        3.7914627353       -2.4100431213
 H        -6.5769939945        2.2999669066       -1.4965926251
 H        -7.3397217574        3.7729950134       -4.9131556543
 H        -8.8172439929        3.0089837651       -4.6911460257
 H        -7.5494729572        2.2999806286       -5.7560890286
 Na      -10.8000100076        1.5451186644       -1.7942507409
