117

 C        -4.5231458068        1.7856561119       -2.8665388697
 C        -5.6932798041        1.5227445447       -3.9215496045
 O        -5.4460391245        1.1186528791       -5.0209014193
 C        -7.1677003507        1.5568874456       -3.6281025177
 C        -7.9847821017        0.1844242069       -3.2557039957
 O        -8.9724726279        0.1328265402       -2.6001173006
 C        -7.5020863751       -1.0928969506       -4.0020207591
 C        -8.4480756343       -2.2504388443       -3.8719873110
 C        -9.0142478830       -2.4136511461       -2.3491778187
 O        -8.2799350183       -2.4137365519       -1.4074286303
 C       -10.6057161429       -2.7937320982       -2.1056937061
 C       -10.9608462113       -1.7339288509       -1.0145891839
 O       -11.2000682642       -0.5959738006       -1.3316464655
 C       -11.1905034335       -1.9885785324        0.4588306125
 C       -11.8050665832       -0.8430532069        1.2697959360
 C       -13.2276880563       -0.4747302795        0.8593323696
 O       -13.8897310917       -1.0461444752        0.0303312997
 C       -13.8385129150        0.7352778988        1.6035417460
 C       -13.1782984812        2.1396065585        1.1980763333
 O       -12.3708508990        2.1788735881        0.2554595687
 C       -13.6989886610        3.4822393274        1.7284133231
 C       -14.5391849442        4.2740737021        0.6585147953
 C       -13.7947334112        4.5017936081       -0.7127529943
 O       -14.0894417668        3.8899962582       -1.7038854084
 C       -12.4948633788        5.6341267271       -0.9748707986
 C       -11.2820769974        4.6158355246       -1.2227044571
 O       -11.2094638801        3.6958705781       -2.0800608300
 C       -10.1135680555        4.8556879749       -0.2144670376
 C        -9.3486216052        6.1943304198       -0.3122821432
 C        -7.7007734927        5.9660752477       -0.6867601372
 O        -7.2459006136        4.9504774839       -0.1650563808
 C        -6.8840663469        7.4009572454       -0.8016700463
 C        -7.3986500453        8.2578703364        0.3841801703
 O        -7.9665603460        9.3238571836        0.1628323017
 C        -7.0314313334        7.7644109645        1.8146699073
 C        -7.5225672995        8.8019554167        2.8747005769
 C        -9.0225057836        8.6604061018        3.0507714840
 O        -9.8864554718        8.1471896373        2.2493757919
 C        -9.4832915086        9.2338625324        4.4282358283
 C        -8.9573658403        8.2640533306        5.5960597412
 O        -8.3210515603        7.2880417222        5.2367366981
 C        -9.3724944439        8.5258618075        7.1006243646
 C        -8.7819372247       10.6544095479        4.8146654904
 C       -10.9994847279        9.4049528129        4.3844935817
 C        -5.3281199942        7.1412758049       -0.7538529165
 C        -7.3833803230        8.2763642919       -2.0720551829
 C       -12.8372596927        6.3362895348       -2.2604033649
 C       -12.3443620009        6.5560306311        0.2140552187
 C       -15.4609999960        0.7606862217        1.3827352390
 C       -13.6287462121        0.6902639596        3.1889357391
 C       -11.6482091545       -2.6762906514       -3.2868636636
 C       -10.7778765233       -4.1966704904       -1.4627573765
 C        -7.3577424402        2.5016042021       -2.3878925065
 C        -7.8641115126        2.1774602051       -4.8615424361
 H        -4.9269529145        2.4132545641       -2.0624619618
 H        -3.6384121348        2.1590302272       -3.3869610085
 H        -4.3123491320        0.8384065461       -2.4885133708
 H        -6.6488097091       -1.2141664114       -3.3444320324
 H        -7.1416420525       -0.9990155289       -5.0187492131
 H        -7.9278276785       -3.1439027142       -4.0685603267
 H        -9.3269169279       -2.0382516203       -4.4980000588
 H       -10.2000352616       -2.4140903184        0.8482101351
 H       -11.7504027896       -2.9089871603        0.2611744604
 H       -11.1825722968        0.0338180672        1.4427279090
 H       -11.8747595898       -1.2934864653        2.2757455245
 H       -12.7895837471        3.8383365605        2.1481631532
 H       -14.5006230643        3.3237655629        2.3809729954
 H       -14.5809929387        5.3207416424        1.1258356862
 H       -15.5728320107        3.9155676860        0.4619739520
 H        -9.3608154302        4.0535491577       -0.2404969844
 H       -10.6728395919        4.4975950759        0.6676468161
 H        -9.2845067370        6.9937764999        0.4777770382
 H        -9.7579422757        6.7796162127       -1.1275007269
 H        -6.0136907660        7.4471834125        1.9596820799
 H        -7.5893862140        6.8889283344        2.0421660491
 H        -7.4788115123        9.7656447789        2.3802039868
 H        -6.9142499967        8.7429616692        3.7889503473
 H       -10.2183011489        8.0133549264        7.3616650068
 H        -9.5508848751        9.6172937656        7.1857682041
 H        -8.5762776231        8.1412326280        7.7960061515
 H        -9.3839075141       10.9356078162        5.7294373973
 H        -8.9998669430       11.3322284427        4.0319044764
 H        -7.7486814168       10.5949011926        5.1790352231
 H       -11.5038338899       10.3831816841        4.6252371335
 H       -11.4485257911        8.8407771730        5.1875977448
 H       -11.3757141173        8.9069574022        3.5641392748
 H        -4.9095125220        8.0365123857       -0.4066959668
 H        -5.1151623667        7.0563550516       -1.8216677454
 H        -5.2226979302        6.1799121837       -0.2382676713
 H        -7.0153693333        7.9453197694       -3.0342002545
 H        -6.8656372024        9.1807207045       -2.0946486633
 H        -8.4250445514        8.5429747128       -2.2148016700
 H       -12.9603455343        5.5590712921       -3.0070045225
 H       -12.0299640071        7.0678823781       -2.5624341007
 H       -13.9127228448        6.8048072460       -2.2645636790
 H       -11.6146043564        7.2475755466        0.0123908718
 H       -12.0187032795        6.0549941229        1.2099431367
 H       -13.1830114660        7.2206053142        0.4062281704
 H       -15.7853026697        1.6201314825        0.8124049253
 H       -15.9765101406        1.0249420951        2.3225885404
 H       -15.7221678736       -0.2307516727        0.9991867985
 H       -14.3227845623        1.4011598586        3.5850326192
 H       -12.6767470633        0.8667243107        3.5447500484
 H       -13.8733752987       -0.2573287549        3.6574426607
 H       -11.2070544510       -3.2405597129       -4.1011192042
 H       -11.5672961445       -1.6379256970       -3.5426921352
 H       -12.5921524651       -2.8616671485       -2.8704853133
 H       -10.5038652249       -5.0498890337       -2.0472081675
 H       -11.7443653545       -4.3679366487       -1.0773644928
 H        -9.9739155000       -4.3288434475       -0.7048539138
 H        -8.3767345844        2.4486219889       -1.9719109323
 H        -6.8943238209        3.4863901247       -2.4854296786
 H        -6.7460435189        1.9771840879       -1.6447827027
 H        -7.8190432983        3.2425706391       -4.8161297920
 H        -8.9275232761        1.9732225511       -5.0163780395
 H        -7.4843620712        1.7730419860       -5.7763155232
 Na      -10.4226199445        1.6786292064       -1.2881013251
