117

 C        -4.6233553607        1.6498527473       -2.8651669322
 C        -5.6777337869        1.2852802999       -3.9353994840
 O        -5.2474047986        1.0939356788       -5.0912089078
 C        -7.2677813721        1.4607813155       -3.5821565321
 C        -7.9965193865        0.1682201419       -3.2543313193
 O        -8.9740452570        0.2279671157       -2.5565684663
 C        -7.5634181524       -1.1363972828       -3.9397178058
 C        -8.4896484287       -2.3843165653       -3.6188767972
 C        -9.1292065141       -2.5275364725       -2.2360479266
 O        -8.4208265951       -2.4770914317       -1.2543931483
 C       -10.6604777376       -2.7154557234       -2.0170247125
 C       -11.2306515637       -1.6229217719       -1.0432441772
 O       -11.2756214782       -0.5341829078       -1.4806378907
 C       -11.4791511221       -2.1525362513        0.5960382094
 C       -11.7654939266       -0.9278962931        1.3321368610
 C       -13.2116138277       -0.4483424630        0.9420950514
 O       -13.7834623397       -1.0515372449        0.0797810441
 C       -13.8761442627        0.8569129318        1.5834695412
 C       -13.2407661765        2.1897788771        1.1090762500
 O       -12.2603447540        2.1701158635        0.3474925987
 C       -13.6473213916        3.5054079216        1.7539872478
 C       -14.4102950251        4.2283143529        0.6253539606
 C       -13.6203439500        4.4324151332       -0.8503673924
 O       -14.1507024214        3.7057751620       -1.7068180976
 C       -12.5758478275        5.5513089871       -1.0412626638
 C       -11.2162099938        4.7711328143       -1.0683004835
 O       -11.1734219011        3.8664307655       -1.8684511212
 C        -9.9910244053        4.9917597402       -0.1495711882
 C        -9.3046854202        6.2370967165       -0.4939593739
 C        -7.7415702455        6.2004718523       -0.4736042427
 O        -7.2734689827        5.0674030518       -0.2348409275
 C        -6.8020032521        7.4362083013       -0.8958395935
 C        -7.2187841865        8.3215592943        0.3244669190
 O        -7.8388509836        9.3673328478        0.1963634530
 C        -6.9764303473        7.7963495282        1.6998423951
 C        -7.4888047061        8.8335010764        2.8322557922
 C        -8.9767421442        8.6835958423        3.1009984226
 O        -9.6505029813        8.1138174210        2.2646335120
 C        -9.6158958839        9.2060705792        4.4055142832
 C        -9.1071871774        8.2311708387        5.4811299033
 O        -8.3288182940        7.3749385224        5.2143029067
 C        -9.4522435318        8.4338097118        6.9625574068
 C        -8.7528706364       10.5718923446        4.7844393499
 C       -11.0942768606        9.5416583897        4.3785693750
 C        -5.2824989267        7.2527380512       -0.8266110754
 C        -7.1668328520        8.1715517459       -2.1641478133
 C       -12.8710177596        6.5398947928       -2.2922225975
 C       -12.4781435703        6.5476025102        0.1412202875
 C       -15.4202308341        0.7492874832        1.0981232542
 C       -13.8028614742        0.8069653874        3.1468512588
 C       -11.5257161184       -2.6442880673       -3.3154126178
 C       -10.8036477566       -4.2100180312       -1.3465297456
 C        -7.3596140685        2.4301664560       -2.2460258610
 C        -7.9676597704        1.8774198257       -4.9115709163
 H        -5.1106446095        2.0864610351       -2.0799605390
 H        -3.9120916510        2.1977521038       -3.3617230094
 H        -4.1288219206        0.6705613809       -2.5428998574
 H        -6.4814130532       -1.1870511276       -3.6548800953
 H        -7.6372306383       -0.9770793685       -5.0365646388
 H        -7.9374796166       -3.2726562672       -3.6654198471
 H        -9.2507240940       -2.3479131351       -4.3821084248
 H       -10.4990332564       -2.6145127041        0.7582425563
 H       -12.1485588795       -3.0523855514        0.5079214055
 H       -11.0293699243       -0.1705016223        1.1402977873
 H       -11.6743681781       -1.0956004190        2.4225073253
 H       -12.6600685733        3.8321392708        2.1168547853
 H       -14.4205308645        3.3294555033        2.4920513549
 H       -14.6529078069        5.1835492949        0.9536546502
 H       -15.3519969647        3.7151543962        0.3116728315
 H        -9.3313396149        4.1314048067       -0.1839279008
 H       -10.2992908711        4.9453796130        0.8912140951
 H        -9.4779661219        7.0330937633        0.3329620302
 H        -9.5727674506        6.8835496340       -1.3496029496
 H        -5.9068402798        7.7315640589        1.9135752787
 H        -7.3114120426        6.8054410439        1.9022130421
 H        -7.3915266949        9.8691224737        2.3642469267
 H        -6.8415240029        8.6606051931        3.6624360073
 H       -10.5658411245        8.1711010043        7.2105298593
 H        -9.2518233478        9.4384330318        7.2488630271
 H        -8.8821781840        7.7208725143        7.4543692584
 H        -8.8568680590       10.8224458237        5.8140557373
 H        -9.0898212976       11.3400990359        4.1133989148
 H        -7.7313541946       10.3628749380        4.6984843970
 H       -11.3533562142       10.3691629188        4.9854955991
 H       -11.7682348212        8.7957394806        4.8053203200
 H       -11.4752097986        9.5563220808        3.3461495404
 H        -4.9952252082        8.3200288287       -0.7439299818
 H        -4.8982930929        6.8634394797       -1.8416793149
 H        -5.1515068902        6.6114032589       -0.0410199949
 H        -6.9325948896        7.7281651289       -3.0882964936
 H        -6.5929486639        9.0390698751       -2.2568142561
 H        -8.1791948920        8.5770146094       -2.2229897761
 H       -13.3971710930        5.9685196708       -3.1599874681
 H       -11.8123669393        6.9782696936       -2.5915431696
 H       -13.6050439560        7.2742458337       -2.0584804740
 H       -11.7583589268        7.3310640110        0.0749332867
 H       -12.3862031936        6.0810869902        1.1864592899
 H       -13.3935867328        7.0778179653        0.1337935061
 H       -15.5775855681        1.2003854473        0.1050355801
 H       -16.0105365206        1.3874274488        1.7973898612
 H       -15.6305004370       -0.2478963776        1.1894989568
 H       -14.5267625687        1.4824844794        3.6171070667
 H       -12.8325424610        0.8849586564        3.6329750035
 H       -14.0889631893       -0.1352288228        3.4256849010
 H       -10.8404097596       -3.0540511202       -4.0804912846
 H       -11.7384152539       -1.6282676650       -3.5066788042
 H       -12.4522685014       -3.0922724417       -3.0354069859
 H       -10.4993609813       -4.9790180046       -1.9451183278
 H       -11.7248168264       -4.4366698628       -0.9129349082
 H       -10.0029001135       -4.3757328622       -0.7064933632
 H        -8.3732138214        2.5749194372       -2.0072157729
 H        -6.7775679480        3.4481489629       -2.4107897641
 H        -6.8579713761        1.9808833137       -1.4582353564
 H        -8.1632896699        2.8936555159       -5.0223607572
 H        -8.8781080432        1.3224666724       -5.2355427672
 H        -7.3463243061        1.4587093122       -5.7222194060
 Na      -10.4259625947        1.6523832884       -1.2116115243
