117

 C        -4.8599371506        0.9569790419       -2.6890528780
 C        -5.8870561645        0.9613521184       -3.8111155116
 O        -5.4953299794        0.6185822193       -4.9477441965
 C        -7.3685266710        1.3751581806       -3.6249598715
 C        -8.0196131902       -0.0129870016       -2.9601228268
 O        -8.8706649738       -0.0413045185       -2.1589745641
 C        -7.4038983599       -1.3644173756       -3.4034304466
 C        -8.3751153397       -2.5334861831       -3.2845022435
 C        -9.2762725864       -2.4887471438       -1.8866906036
 O        -8.6429542901       -2.4644310160       -0.8801828703
 C       -10.8996470022       -2.8627007731       -1.8598320715
 C       -11.3442025113       -1.7931060959       -0.8991584151
 O       -11.6683416838       -0.7287672806       -1.3368617223
 C       -11.2392629518       -1.8948992809        0.5865673400
 C       -11.9567669050       -0.8169335011        1.3547526226
 C       -13.4435840315       -0.4616985729        0.8860443920
 O       -14.0391658209       -1.1606608595        0.1395329851
 C       -13.9957355892        0.9344666962        1.3582455808
 C       -13.0206911180        2.1729613207        1.1658791956
 O       -11.8339907064        2.1340861341        0.7612320059
 C       -13.5763627451        3.5462381273        1.5016451365
 C       -14.4804758688        4.3023139178        0.4418241067
 C       -13.6573267578        4.5119618886       -0.8690538631
 O       -13.7697085154        3.6690358627       -1.7716324400
 C       -12.4994700492        5.6414763257       -0.8986358959
 C       -11.1567656241        4.9616617702       -0.7168225025
 O       -11.0031828308        3.9375071782       -1.4111990672
 C        -9.9736032750        5.6456076802       -0.0228274787
 C        -9.2256825304        6.5340384064       -0.9915080069
 C        -7.6325083059        6.3957513665       -0.6938988378
 O        -7.2460212090        5.2221041972       -0.5083142598
 C        -6.7367729624        7.5503861861       -0.9263964944
 C        -6.9526979509        8.6974868084        0.1478381452
 O        -7.3875188278        9.8203535531       -0.1481385075
 C        -6.4910734647        8.2210508946        1.5869374923
 C        -7.1542648301        8.9700533346        2.8189504992
 C        -8.7639643051        8.7962303921        2.9731093314
 O        -9.5007665345        8.0545207581        2.2937708761
 C        -9.4328400770        9.3203392091        4.3752300680
 C        -9.2384852720        8.1154315443        5.4846436095
 O        -8.4543005455        7.2897002891        5.1712325448
 C       -10.0977169842        8.2220084434        6.8352121862
 C        -8.7756318066       10.6953057049        4.7837043236
 C       -11.0076116267        9.4434334185        3.9960101341
 C        -5.1705133762        7.0828142500       -0.7937062766
 C        -6.9354821689        8.1608527395       -2.3133475707
 C       -12.5832593597        6.2654317975       -2.3588546100
 C       -12.7380997749        6.7578457803        0.1081338080
 C       -15.4179012445        1.2026056847        0.7053541254
 C       -14.1954792538        0.8235542161        2.8723771994
 C       -11.5560547361       -2.5912855618       -3.2606847717
 C       -11.0682907392       -4.3047820924       -1.3428583230
 C        -7.5139072976        2.5520017636       -2.6489538854
 C        -7.8814709459        1.5352291264       -5.0515681207
 H        -5.3196965290        0.8078040184       -1.7250456667
 H        -4.2661248370        1.8501574174       -2.8748020637
 H        -4.1933973203        0.0708215925       -2.9485572418
 H        -6.7050216257       -1.5699258122       -2.6158235077
 H        -6.8489329797       -1.2741800899       -4.3126045830
 H        -7.8394700471       -3.4692031168       -3.3872328517
 H        -9.1441721873       -2.5420017354       -4.1387649467
 H       -10.1188220999       -1.9443301474        0.7093653802
 H       -11.5270637560       -2.9038091926        0.9081297149
 H       -11.5737872011        0.1304377639        1.6729983031
 H       -12.1750488461       -1.3902346736        2.2896341523
 H       -12.6979642070        4.2250433545        1.7011962986
 H       -14.1389709847        3.4258441463        2.4212336559
 H       -14.8226363394        5.3018693779        0.7828436614
 H       -15.3210759995        3.7209042475       -0.0758432717
 H        -9.3284567037        4.8438048995        0.4171952932
 H       -10.0454591851        6.3184762614        0.8694058502
 H        -9.5578826673        7.5663221416       -0.9998055412
 H        -9.2321002485        6.2856725205       -2.0350220749
 H        -5.4100545440        8.4343047851        1.7610113750
 H        -6.5851870428        7.1498201278        1.6980078601
 H        -6.9425907107       10.0016633338        2.5812625704
 H        -6.7892424797        8.6377902949        3.7881675059
 H       -10.8877800275        9.0519819484        6.7018634413
 H        -9.4547173039        8.4380554634        7.7097561297
 H       -10.6697978087        7.3200855624        6.9738430031
 H        -9.4523696701       11.2729946421        5.5059730358
 H        -8.6429626209       11.1325031262        3.7909840563
 H        -7.7973561177       10.5396862602        5.2744801749
 H       -11.7628993015        9.1585246727        4.7712862353
 H       -11.3863516346        9.0215432359        3.0888556602
 H       -11.2176637571       10.4650340202        3.7541417170
 H        -4.6213966334        7.8089859805       -1.3488109715
 H        -5.2116014877        6.1154472987       -1.3796457747
 H        -4.9534236247        6.8820856036        0.1832212853
 H        -7.0439985291        7.5084701592       -3.2166911813
 H        -6.1559230003        8.8127796343       -2.6025061181
 H        -7.7461358130        8.9527750994       -2.3722150515
 H       -12.5558277856        5.3886928100       -3.0549605325
 H       -11.9459224475        7.1091459306       -2.7418058870
 H       -13.5679690528        6.5122296800       -2.5244833287
 H       -12.0341773090        7.4835015449       -0.1009918566
 H       -12.4278159270        6.5518073857        1.2348588157
 H       -13.6919221923        7.2710069270        0.1381875548
 H       -15.7248619072        0.2447175044        0.1854410719
 H       -15.3872500491        2.0886325773       -0.0240823460
 H       -16.1187308532        1.3272529484        1.5395102936
 H       -14.6260694064        1.7898420968        3.2922860758
 H       -13.3015909901        0.6399913257        3.4832374895
 H       -14.8269167128        0.0011423851        3.1261192092
 H       -11.6272412539       -3.6595943544       -3.6491025601
 H       -11.0880237882       -1.8263059215       -3.8433280618
 H       -12.4959854274       -2.1244556845       -3.0413381655
 H       -10.5056504123       -5.1090426508       -1.7740653446
 H       -12.1836205676       -4.4765064259       -1.3120233857
 H       -10.6103778337       -4.5350693268       -0.3281995343
 H        -8.4716008181        3.0473962134       -2.8290382249
 H        -6.6542994994        3.3884555806       -2.7055844194
 H        -7.3713831475        2.1453817577       -1.6701464940
 H        -7.1744708638        2.2158018840       -5.4070866822
 H        -8.8888193642        2.0229698143       -5.1708054586
 H        -8.1498640192        0.7158450295       -5.7274547114
 Na      -10.6170106230        1.4712427301       -1.3021635720
