117

 C        -4.8077780212        0.8963160371       -2.3201060047
 C        -5.7640189659        0.5418760356       -3.5990666752
 O        -5.2618439531        0.3598374790       -4.6635655805
 C        -7.4610366207        0.7719940166       -3.4969663058
 C        -8.1859585529       -0.1181552391       -2.3870359447
 O        -9.1600499463        0.3652718471       -1.7575582059
 C        -7.6666484026       -1.6007819710       -2.1017453213
 C        -8.6882664686       -2.6977863212       -2.6394764725
 C        -9.6351702837       -3.0770788899       -1.4900382694
 O        -9.1689211904       -3.2377564890       -0.4167845196
 C       -11.2340390667       -2.9665598224       -1.6354137625
 C       -11.6711153607       -1.6741931003       -0.7168756188
 O       -11.7060587034       -0.5251836690       -1.1772993665
 C       -11.5354198807       -1.8078461775        0.8310675923
 C       -12.1321493513       -0.6466166237        1.5216472906
 C       -13.6241690961       -0.3259134192        1.0298836270
 O       -14.1389359246       -1.2268262453        0.4511827856
 C       -14.4101630393        0.9659131414        1.3063072700
 C       -13.5259327983        2.2224513314        1.1928808400
 O       -12.3883674508        2.1303479787        0.7377715828
 C       -13.9647625493        3.6768528919        1.6111788970
 C       -14.1448696752        4.5987917410        0.3081985572
 C       -13.0641471613        4.4562271765       -0.8504806501
 O       -13.0627371927        3.3668948389       -1.4924234823
 C       -12.0479130299        5.5076621657       -1.1959483428
 C       -10.6356782813        5.0751277654       -0.6277249090
 O       -10.1922706099        3.9516235909       -0.6632283728
 C        -9.8412710031        6.1129228690        0.1089767103
 C        -8.8215992080        7.1012252095       -0.7097854161
 C        -7.3227537672        6.6365204528       -0.8181452003
 O        -6.7946633105        5.5639581047       -0.5407914617
 C        -6.3256001118        8.0060334176       -1.1791031822
 C        -6.5539021283        8.9930683019        0.0164647692
 O        -7.0004001203       10.1346577387       -0.2286094909
 C        -6.1261580781        8.4251387125        1.4077869215
 C        -6.8967025633        9.1112597597        2.6922822437
 C        -8.4020964428        8.7690429859        2.8058631209
 O        -8.8155520771        7.8994612639        2.0488466296
 C        -9.2997876777        9.3418825608        3.7793536635
 C        -9.4882821723        8.1209681996        4.7893542987
 O        -8.6082743827        7.3028419614        4.9706081158
 C       -10.6748431626        7.9420997349        5.8139866838
 C        -8.7160568756       10.5277093559        4.5126502509
 C       -10.8150862630        9.8227403542        3.2818247722
 C        -4.8828640166        7.3999270416       -1.0361820824
 C        -6.3397345988        8.6287408851       -2.5368843033
 C       -11.9201917412        5.6597010973       -2.7596210868
 C       -12.6437522422        6.8804604594       -0.7206060383
 C       -15.5621077658        1.0261313532        0.2181472592
 C       -15.0880044516        0.8977328793        2.6905858272
 C       -11.8182753399       -2.6772179054       -3.1033777340
 C       -11.8722322008       -4.3212714381       -1.1279428898
 C        -7.8311577928        2.2471984143       -3.1557021864
 C        -8.0959965821        0.3828711484       -4.8140693393
 H        -5.2870317056        0.9839202313       -1.3740365575
 H        -4.3625607056        1.8502049455       -2.5884170860
 H        -4.1286548369        0.0979959674       -2.2518433047
 H        -7.5096182169       -1.7009408182       -1.0066529646
 H        -6.6957457474       -1.7595327496       -2.6188360305
 H        -8.1815322347       -3.5821325335       -2.9533832317
 H        -9.1169538806       -2.4101146323       -3.5421185432
 H       -10.3921815092       -1.9675865857        1.0681900685
 H       -11.9703316110       -2.7665646676        1.1700556280
 H       -11.7352015364        0.3613249129        1.4121286157
 H       -12.2646736435       -0.7993688595        2.5671751602
 H       -13.3584954102        4.2561116671        2.3029861703
 H       -14.9156121935        3.8998637512        2.0817296384
 H       -14.3585733521        5.6594442469        0.5161298059
 H       -15.0553582607        4.2393533585        0.0125228034
 H        -9.3032145107        5.5564652198        0.8485507756
 H       -10.4909208366        6.7761030652        0.6695055873
 H        -9.0642917322        7.9368953265       -0.0669646039
 H        -8.9346475571        7.2973672258       -1.8498914346
 H        -5.1438032677        8.7447867884        1.5638253369
 H        -6.2298423301        7.3364065949        1.4013913664
 H        -6.7202495061       10.1745465458        2.5753820304
 H        -6.2936994897        8.8445610358        3.6068400993
 H       -10.2399910105        7.9908237037        6.7860784472
 H       -11.0300973007        6.9000021535        5.7037142593
 H       -11.5621514064        8.5980827884        5.8411919553
 H        -9.5286370309       10.9958639744        5.0874087776
 H        -8.5296397712       11.3084812041        3.7554412217
 H        -7.7214341134       10.2189469178        4.9267799238
 H       -11.2765564340       10.6665283797        3.8711386578
 H       -11.5883591592        9.0904756425        3.2524183726
 H       -10.8288820251       10.3766454656        2.3903131257
 H        -4.1743000543        8.2491150602       -1.1386071907
 H        -4.8141813366        6.6786267897       -1.8637569521
 H        -4.7667110449        6.9446709449       -0.0293486165
 H        -6.5782862818        7.9267342952       -3.3445920764
 H        -5.3972789969        9.1175244374       -2.8433581239
 H        -7.1353571598        9.3382672126       -2.7212767110
 H       -12.0039419395        4.6547889517       -3.1881840059
 H       -10.8619957721        5.8989061727       -3.2176403258
 H       -12.5557370725        6.5099723946       -3.1340797695
 H       -12.1040695777        7.6694287335       -1.0081130303
 H       -12.9542024483        7.0117816359        0.4269380253
 H       -13.5492452642        6.9790629030       -1.2641684316
 H       -15.1786371088        1.5473368916       -0.5654026985
 H       -16.3833960293        1.6412235810        0.5724944167
 H       -15.9824241526        0.0294057776        0.2098275808
 H       -15.4845701709        1.8528864962        2.8808774529
 H       -14.3508648016        0.8220953785        3.4607499337
 H       -15.9596203376        0.2203441737        2.8745486090
 H       -12.0140606802       -3.4786336499       -3.7481351179
 H       -11.1226617523       -1.9071045923       -3.3962728385
 H       -12.8181254205       -2.3370096560       -2.9372899974
 H       -11.7162224342       -5.0769949230       -1.8923184778
 H       -12.9031494467       -4.2886726573       -1.1647746169
 H       -11.7248335143       -4.6319882398       -0.1246618489
 H        -8.8800079057        2.5472172300       -3.1840295428
 H        -7.2302950301        2.8648932125       -3.8313428010
 H        -7.5786796621        2.4740339442       -2.1295071109
 H        -8.6929246789       -0.5151914646       -4.7117712597
 H        -7.4046866473        0.2827976944       -5.6062134755
 H        -8.8609530968        1.0941824060       -5.0965194359
 Na      -11.1998034086        1.8214285032       -1.5057348434
