117

 C        -5.0022933933        1.0341270925       -2.3430282749
 C        -5.8727020032        0.5904715170       -3.5178794616
 O        -5.2265730899        0.3714215998       -4.5656316446
 C        -7.4319092005        0.6502478849       -3.4772905361
 C        -8.1895017841       -0.1024382976       -2.3013047695
 O        -9.0461838638        0.4052960163       -1.6758511807
 C        -7.7657259445       -1.4994765191       -1.9892909592
 C        -8.7454239760       -2.6163916298       -2.4966757717
 C        -9.7488411388       -3.0249581490       -1.4045565960
 O        -9.4031172925       -3.4868014049       -0.3615637090
 C       -11.3849796017       -2.9345944931       -1.5662949208
 C       -11.5646986044       -1.6800512003       -0.6193538992
 O       -11.6913594566       -0.6394135367       -1.2191317065
 C       -11.5930070701       -1.7550919005        0.9210995485
 C       -12.2641148341       -0.5760295775        1.5702198699
 C       -13.7822582700       -0.3910216479        1.0495386889
 O       -14.2936767368       -1.3363308153        0.5143192295
 C       -14.4871285440        1.0568378678        1.3025166940
 C       -13.5791863996        2.2852075373        1.1177537876
 O       -12.3839861692        2.2238088071        0.7974066650
 C       -14.0860295608        3.6694499119        1.4415415733
 C       -14.0746308620        4.6393751326        0.1990621297
 C       -12.9588771511        4.2921614582       -0.8430821120
 O       -12.8697697837        3.1382826545       -1.3512635150
 C       -12.0484516891        5.4244091373       -1.2865355253
 C       -10.4971553275        5.1216534810       -0.5777794531
 O       -10.1191511946        4.0022720568       -0.8502922727
 C        -9.6813741020        6.1630403942        0.1625801224
 C        -8.7608786828        7.1685476094       -0.7168476971
 C        -7.2634936184        6.8082347399       -0.8188785521
 O        -6.8051991218        5.7025504957       -0.5998796277
 C        -6.2325154951        7.9754751165       -1.0932383037
 C        -6.4974792876        9.1031233357        0.0461327812
 O        -7.0565250561       10.1640875780       -0.1053154076
 C        -6.1775992729        8.5123008097        1.3900840416
 C        -6.8327902892        9.1524691934        2.6268993932
 C        -8.3469894592        8.7846377582        2.5808435593
 O        -8.7282048597        7.7846526943        1.9413863089
 C        -9.3079661909        9.3875379943        3.8235140926
 C        -9.5025111373        8.1139264480        4.8249241016
 O        -8.5536617674        7.4439490578        4.7878871077
 C       -10.7256950520        7.9948916114        5.6596598528
 C        -8.7417849241       10.5503929224        4.6671140675
 C       -10.6438468132        9.8554509303        3.1155714040
 C        -4.7335294072        7.2852826243       -1.0292053743
 C        -6.4701258943        8.6193155509       -2.4982723061
 C       -11.7932406685        5.4452753618       -2.8330905835
 C       -12.4524669533        6.8318498757       -0.7552552416
 C       -15.6584876300        1.1602127066        0.2400672621
 C       -15.1177321040        0.9124578068        2.6702530178
 C       -11.8043778230       -2.6111397990       -3.0016002620
 C       -12.0324631557       -4.2506185694       -1.0737493274
 C        -7.8108074081        2.0964951532       -3.1211073764
 C        -8.0916825241        0.1987255303       -4.9012349695
 H        -5.5687150207        1.2687544160       -1.4970083360
 H        -4.5394277621        1.9004786974       -2.7118530930
 H        -4.2590642413        0.1715368200       -2.1113226458
 H        -7.6376251764       -1.6709059984       -0.8908384880
 H        -6.7730575095       -1.6587073812       -2.4827043937
 H        -8.2197114223       -3.4844205193       -2.7859651479
 H        -9.2559713522       -2.3282120793       -3.4222882710
 H       -10.5755630387       -1.9837720414        1.2872398715
 H       -12.1879229354       -2.6454115728        1.1811228896
 H       -11.8879279260        0.4408313714        1.4599034483
 H       -12.5118937206       -0.6928312025        2.6272035143
 H       -13.5431177904        4.3186282099        2.1248972154
 H       -15.0981383967        3.7885951050        1.9020705613
 H       -13.8754475199        5.5896920911        0.5241698204
 H       -15.1031890411        4.7110719734       -0.1554497437
 H        -9.1843808315        5.6292917360        0.9548211889
 H       -10.4036159255        6.8706128622        0.6206921955
 H        -9.2345142051        8.0666751931       -0.2852885195
 H        -9.0030604275        7.0241785579       -1.8340155284
 H        -5.1328187285        8.5679490279        1.6221671501
 H        -6.5354083222        7.4826998117        1.3920547311
 H        -6.4695380495       10.1642539640        2.8102792710
 H        -6.3819483973        8.5396536798        3.4959589267
 H       -10.5400594001        7.8574535595        6.8165031091
 H       -11.4063019872        7.2307537939        5.3915860408
 H       -11.2576866028        8.8932646929        5.5526488001
 H        -9.4889130667       10.9631649245        5.3762516157
 H        -8.6033751154       11.3738595274        4.0128633975
 H        -7.7845136227       10.2001720222        4.9780218452
 H       -11.4560706016       10.3889395222        3.6792626051
 H       -11.2158865017        9.1048984884        2.5794461712
 H       -10.4036626163       10.6739504778        2.4771009061
 H        -4.0876258571        8.1156431887       -1.4150290870
 H        -4.8674255242        6.4459246170       -1.8550410853
 H        -4.4075099929        6.9453542994       -0.0893364683
 H        -6.7702760786        7.9513785957       -3.2894297264
 H        -5.6180966132        9.0679807266       -2.8363947656
 H        -7.3127697004        9.3202738739       -2.5751206775
 H       -11.6619554728        4.3357007937       -3.0437304191
 H       -10.7314751719        5.6717731023       -3.0993672582
 H       -12.3203941639        6.0846744110       -3.4114204858
 H       -11.7081927692        7.5477528120       -1.1955284532
 H       -12.4533497221        6.8692530878        0.3096122455
 H       -13.4111782824        7.2420001354       -1.0697812304
 H       -15.2028372384        0.9338516483       -0.7060611728
 H       -15.9704863009        2.1943359871        0.0262452450
 H       -16.4530400635        0.6594487116        0.7236893989
 H       -15.6564005847        1.8405931844        2.9418713531
 H       -14.4518795421        0.6622394761        3.4497850099
 H       -15.9092625311        0.2178085263        2.6607701813
 H       -11.7313388083       -3.5864658482       -3.6332418619
 H       -11.1514122773       -1.8463228177       -3.3275327932
 H       -12.8712272862       -2.4636029200       -2.9886313209
 H       -11.8680468145       -5.0258829087       -1.6885408456
 H       -13.0918611934       -4.2512887804       -1.0268099311
 H       -11.7848969318       -4.4124039506       -0.0572343952
 H        -8.8294530412        2.3500447937       -3.1390295701
 H        -7.2222632659        2.7032006020       -3.8850883101
 H        -7.5857860967        2.3713236776       -2.1633023206
 H        -8.8159512107       -0.5446193421       -5.0180234779
 H        -7.2053681127        0.1166723080       -5.4743725715
 H        -8.6567807604        1.0848616845       -5.3230242149
 Na      -11.1541954886        1.7175116525       -1.6239523041
