117

 C        -5.6191757488        1.1856441301       -1.8762886880
 C        -6.1337788787        0.5136326905       -3.0920482308
 O        -5.3456440272        0.0360917601       -3.8791977723
 C        -7.7975376820        0.5568437722       -3.3683786914
 C        -8.2813814562       -0.0734057550       -2.0681173884
 O        -8.8885682778        0.5010457539       -1.2461832704
 C        -7.8137105759       -1.5807142913       -1.8874200573
 C        -8.8816631666       -2.7006789257       -2.3998333150
 C        -9.9854193441       -3.0857907011       -1.2080715200
 O        -9.5885090956       -3.8133484684       -0.2960032920
 C       -11.5872962995       -2.7936371260       -1.4134603490
 C       -11.8599818958       -1.6196505265       -0.4512139224
 O       -11.8763851808       -0.4986449432       -0.8748512141
 C       -12.1080590810       -1.8105362921        1.0068865976
 C       -12.7748905025       -0.6288003824        1.8715850024
 C       -14.0600313877       -0.2385895223        1.1134235661
 O       -14.6481874120       -1.1355048832        0.4705468528
 C       -14.7150744874        1.2183338535        1.2412125377
 C       -13.6389097379        2.4324516800        1.0068363142
 O       -12.4742175757        2.2433608043        1.2127313261
 C       -14.1480347663        3.9740632424        0.9387182376
 C       -13.7460840842        4.6977962024       -0.3573087772
 C       -12.5813700490        4.0373735563       -1.1993630128
 O       -12.6328554769        2.8358501055       -1.3970893830
 C       -11.5760261214        5.1306819602       -1.8041310190
 C       -10.2834087647        4.7536205958       -1.0209892668
 O        -9.6826958111        3.7513137435       -1.2762877338
 C        -9.4483394910        5.6794495571       -0.0644902767
 C        -8.5470081879        6.6499851194       -0.8894011734
 C        -7.0819101926        6.7418524394       -0.7608352111
 O        -6.5326317583        5.6446452841       -0.7318888744
 C        -6.3348707191        7.9871482845       -1.0712692786
 C        -6.4458847535        9.1786701040        0.1209004957
 O        -7.1402470451       10.0959268281       -0.0920192350
 C        -5.7016268154        8.8286565948        1.5993486961
 C        -6.4688511540        9.4176066930        2.7418842961
 C        -7.9252591070        8.9690688224        2.5884849324
 O        -8.2918628074        8.3341768247        1.6040614791
 C        -9.1893424309        9.4687926807        3.6605318353
 C        -9.6006388562        8.2599713213        4.5687832249
 O        -8.7718457293        7.4945286726        4.9469588543
 C       -10.9603818517        8.1562944025        5.1999367171
 C        -8.5019710274       10.5890245640        4.5096367170
 C       -10.2752268205       10.0886861308        2.9182862773
 C        -4.8326968048        7.6371893753       -1.2706484159
 C        -6.7371409396        8.8811053635       -2.1964309000
 C       -11.4755139156        4.9624704762       -3.3286856623
 C       -11.9135748531        6.5568653747       -1.4367429618
 C       -15.8904682973        1.2752089823        0.2499686728
 C       -15.2130677225        1.3356066004        2.6659381536
 C       -11.9048040517       -2.5502123759       -2.9066040156
 C       -12.3368280172       -4.0531537828       -0.9474028322
 C        -8.3490161421        1.9929221097       -3.5293321262
 C        -8.0409770307       -0.3748552785       -4.6024394836
 H        -6.2360200398        1.1744352644       -1.0123270951
 H        -5.6599719186        2.1683256384       -2.1957135487
 H        -4.5690178981        0.8893897324       -1.7068554025
 H        -7.6751113543       -1.8223367653       -0.8274650046
 H        -6.8904368910       -1.8649056388       -2.4148786776
 H        -8.3353143600       -3.5550707076       -2.5338596406
 H        -9.2684122762       -2.3977605890       -3.3583389796
 H       -11.1483287961       -1.7147118517        1.5686927128
 H       -12.5700670748       -2.7823941216        1.2174993009
 H       -12.1481511615        0.2637307120        1.8704762128
 H       -12.9104316001       -1.0184267670        2.8942280778
 H       -13.7926746517        4.5453899157        1.8357535337
 H       -15.2488444973        3.9351863581        0.9045822237
 H       -13.4276291230        5.6279777344       -0.1908959025
 H       -14.6456418671        4.8065990099       -0.9427506849
 H        -8.8636782284        5.0155939656        0.5333670360
 H       -10.1990968922        6.1468859541        0.5915279299
 H        -9.1257732778        7.6237267528       -0.8991813989
 H        -8.6482151197        6.0634360149       -1.8412393515
 H        -4.7275143778        9.2659508584        1.4617376523
 H        -5.5912630388        7.7789534661        1.7714711418
 H        -6.3900804061       10.5093070079        2.7419649917
 H        -6.0445207875        9.1912418484        3.7639515024
 H       -11.2086879172        7.2241170181        5.7393807268
 H       -11.8508913384        8.5560165458        4.7713210305
 H       -10.9048556459        8.9583031958        5.9473756918
 H        -9.3474283148       11.0652446515        5.1192015660
 H        -8.0925762501       11.3514955523        3.7885384774
 H        -7.7568464711       10.1785940612        5.2531304880
 H       -11.1792886241       10.0695160167        3.5227856453
 H       -10.6179940025        9.5252782643        2.0253182328
 H       -10.0728484976       11.0725405756        2.4717486725
 H        -4.2151912647        8.5374155067       -1.0517089212
 H        -4.7781817356        7.2668721202       -2.3464340336
 H        -4.5515659247        6.7740330657       -0.6786118689
 H        -6.5082010182        8.5317803336       -3.2263657294
 H        -6.3289949315        9.8590360887       -2.1444586552
 H        -7.8617759580        8.8961219863       -2.2970752950
 H       -10.7444404115        4.1159165312       -3.5982640419
 H       -11.0019934153        5.9059811130       -3.7130604190
 H       -12.5077957774        4.9218969183       -3.9282726406
 H       -11.0343589732        7.2378022576       -1.7783012622
 H       -12.0008482123        6.6631800314       -0.4584589652
 H       -12.7889877007        6.9285113943       -1.9517606828
 H       -16.8366735117        1.5548815280        0.7975045200
 H       -16.0164564945        0.2254181856        0.1033589935
 H       -15.7005045886        1.9558446521       -0.4740994043
 H       -15.8319959775        2.2755783913        2.7019282660
 H       -14.4870047493        1.2007332209        3.4436431831
 H       -15.8932388955        0.5975082744        2.8890461137
 H       -11.4277225767       -3.4239810303       -3.3963092075
 H       -11.4168596995       -1.7125222000       -3.3383524335
 H       -12.9850981422       -2.3934416467       -2.8771668253
 H       -12.1975880987       -4.9378425273       -1.5186163185
 H       -13.4071952195       -4.0251954658       -0.6524882725
 H       -11.8037807219       -4.2927450521       -0.0273779974
 H        -9.4417303991        1.9236942408       -3.5841229875
 H        -8.0283379705        2.4256842989       -4.4853912732
 H        -8.1996805404        2.7172227866       -2.6998947056
 H        -9.0040422135       -0.7375718818       -4.3284457899
 H        -7.3570247582       -1.1519341242       -4.5918661751
 H        -8.2683432182        0.1164198110       -5.5669872799
 Na      -10.7314785658        1.7886113869       -0.9757481122
