117

 C        -5.8285286623        1.3778974999       -1.7551115357
 C        -6.2298667830        0.5885242860       -3.0896324272
 O        -5.5624310340       -0.1325498164       -3.7571328314
 C        -7.8795764786        0.4396353014       -3.3090558875
 C        -8.3648369070       -0.2734438049       -2.0441192825
 O        -8.8284510183        0.4464753788       -1.1215887507
 C        -8.0668822233       -1.7157259496       -1.7335646266
 C        -9.0064430366       -2.7855763128       -2.3398714317
 C       -10.0066578438       -3.1837500032       -1.2593390684
 O        -9.5873716494       -3.6667094831       -0.2212147579
 C       -11.5634530458       -2.8014940158       -1.3816400290
 C       -11.9142137229       -1.5056180073       -0.3643644162
 O       -11.8313589295       -0.3608835251       -0.8354104212
 C       -12.0865849362       -1.8484878227        1.1322448003
 C       -12.7267569272       -0.5673384537        1.8432576339
 C       -14.0525219740       -0.1576348043        1.0409977582
 O       -14.6907771676       -0.9446490177        0.4003010796
 C       -14.7715971834        1.3370386521        1.3209155655
 C       -13.7072542392        2.3603447814        1.0513953703
 O       -12.5000388395        2.2248621607        1.1269695401
 C       -14.1984882127        3.8104255355        0.8291690864
 C       -13.8843996017        4.5914880062       -0.4892566324
 C       -12.6347151446        4.0823357723       -1.2921432805
 O       -12.5617649052        2.9258372665       -1.5450542575
 C       -11.4992736918        5.0815318871       -1.8108504249
 C       -10.0949924095        4.6617389057       -1.1321241718
 O        -9.5864690412        3.5676903765       -1.4422292719
 C        -9.3869996533        5.6629374350       -0.1358422032
 C        -8.6223791963        6.6930383471       -1.0454782856
 C        -6.9852515192        6.7036469221       -0.7745789207
 O        -6.2338589713        5.7395308063       -0.6812553504
 C        -6.2702989662        8.1600106570       -1.0010213558
 C        -6.4733253353        9.1013740839        0.1910445574
 O        -7.0809079717       10.1488366895        0.0600645515
 C        -5.6648330590        8.9630707815        1.4762982421
 C        -6.5245151419        9.2747744293        2.7030281708
 C        -7.9903197910        9.0417103460        2.5821387540
 O        -8.4306512389        8.3525975467        1.7114276749
 C        -9.0763566098        9.5588467404        3.6213049320
 C        -9.4913340120        8.3569502424        4.5317175333
 O        -8.6478344514        7.4634176197        4.8803532734
 C       -10.9958600790        8.3151152166        5.0826039769
 C        -8.4504075853       10.5694190762        4.6616768163
 C       -10.1665855643       10.1331420689        2.6844526154
 C        -4.6547835585        7.8426626343       -1.2182393190
 C        -6.8634082285        8.6439218886       -2.3343575666
 C       -11.2706392036        4.7456020987       -3.3356827168
 C       -11.9818679196        6.5716253003       -1.7519333281
 C       -15.9562822330        1.4861808403        0.2317865508
 C       -15.2736723975        1.5131250276        2.7172571518
 C       -11.9966655212       -2.3702772932       -2.8272742224
 C       -12.2407364148       -4.2135357586       -1.0285943907
 C        -8.4015409270        1.8187706383       -3.5008399841
 C        -7.8756020362       -0.4584943724       -4.5575158031
 H        -6.5131827202        0.9627890932       -0.9728475578
 H        -6.0691010113        2.4593192122       -1.7186033038
 H        -4.8622573904        1.1697390259       -1.5366601089
 H        -7.9851691273       -1.8530945432       -0.6259473378
 H        -7.1283061282       -2.0402757751       -2.1984952575
 H        -8.3487064975       -3.6371657014       -2.5745469580
 H        -9.3629113555       -2.3301677400       -3.2495782759
 H       -11.1270622075       -1.8948149568        1.5463695855
 H       -12.7073843492       -2.7366449782        1.3942592119
 H       -12.0960875015        0.2945913488        2.0401474054
 H       -13.0801060466       -0.9975733617        2.8066251794
 H       -13.7235487514        4.3366450517        1.7086837762
 H       -15.2912302158        3.8509758944        0.8894637521
 H       -13.4612552836        5.6670241762       -0.2498084135
 H       -14.7902461206        4.6950847815       -1.0839048007
 H        -8.5574075925        5.1216364456        0.4057031170
 H       -10.0073569223        6.2316544834        0.6004596177
 H        -8.9794089978        7.6299637468       -0.5534532986
 H        -8.8530969528        6.5528228676       -2.1430716138
 H        -4.7706935777        9.5916486585        1.2520381804
 H        -5.3261441454        7.9537588554        1.5895004821
 H        -6.3171298790       10.3328103990        3.1031514495
 H        -6.1576222448        8.7199806233        3.5622904183
 H       -11.2644597000        7.4193260028        5.4340124679
 H       -11.7315330331        8.6705664847        4.3127800027
 H       -11.3283421998        9.0829719357        5.8155070835
 H        -9.2060255374       10.8082202865        5.3822961067
 H        -8.0411547344       11.4603480946        4.1167070409
 H        -7.6785478663       10.0439876342        5.2648376640
 H       -10.8538165663       10.6956395605        3.2410309722
 H       -10.8126566299        9.4559392442        2.1033273840
 H        -9.6876260503       10.6941127308        1.8304222197
 H        -3.9289011176        8.7120643721       -1.1261695837
 H        -4.7248032326        7.4893773775       -2.2028967641
 H        -4.3253365709        6.8499344985       -0.6583817085
 H        -6.8309503153        7.8414839303       -3.0396738753
 H        -6.4160257715        9.5022855478       -2.8709627756
 H        -7.9156199477        8.8277422901       -2.2709284545
 H       -10.9229518746        3.8192551361       -3.5852124769
 H       -10.5302195298        5.5080836628       -3.5948248343
 H       -12.1850586638        5.0451760153       -3.9722012089
 H       -11.4596699380        7.1740657660       -2.4262505730
 H       -11.9155512822        7.0898697943       -0.6837011009
 H       -13.0061129041        6.5563093172       -2.0962047042
 H       -16.3419685944        2.4931662740        0.2007231353
 H       -16.6517904365        0.7833837321        0.6509446914
 H       -15.5286721981        1.2768688870       -0.7549123923
 H       -15.6118467856        2.4926525534        2.8705001312
 H       -14.5185362447        1.2029751133        3.4133734999
 H       -16.0709926611        0.8315046907        2.9561787841
 H       -11.7721604613       -3.1587042043       -3.4982231519
 H       -11.2981607062       -1.5343607087       -3.1844288110
 H       -12.9226093848       -1.8153699194       -2.6812271222
 H       -11.8290179692       -5.0912056991       -1.5599630204
 H       -13.2900857483       -4.2036955185       -1.0278567930
 H       -11.9597635761       -4.5030584977       -0.0669800421
 H        -9.4950799175        1.7015473190       -3.5788904592
 H        -8.1185891392        2.3300084079       -4.3314477702
 H        -8.2354800262        2.4787400487       -2.5758334846
 H        -8.9335153768       -0.6105806641       -4.9775431182
 H        -7.4936865051       -1.3776151725       -4.1242140192
 H        -7.2349393732       -0.0473660560       -5.2977252396
 Na      -10.7807513678        1.6069954898       -0.6489479117
