117

 C        -5.9379157827        1.4591509401       -1.7819699597
 C        -6.3509396332        0.4447582429       -2.8280621627
 O        -5.4672294602       -0.0720267193       -3.5062156571
 C        -7.9029107385        0.2607650608       -3.2329374235
 C        -8.4227811343       -0.3937880327       -1.9559071699
 O        -8.8772169544        0.3618551862       -1.0016701355
 C        -8.0918241493       -1.8096689083       -1.6950581308
 C        -9.0995061986       -2.8201617184       -2.2990831981
 C       -10.0157575152       -3.0700025928       -1.1985184069
 O        -9.6977318688       -3.5420434246       -0.1516674771
 C       -11.5771785071       -2.7361378180       -1.2878351753
 C       -11.7913272576       -1.6359873088       -0.3070823719
 O       -11.8115467313       -0.5139324605       -0.8574527957
 C       -12.1283733814       -1.8361985030        1.1417388083
 C       -12.8668052070       -0.5114657284        1.7482656485
 C       -14.1840703816       -0.1317774041        1.1270597460
 O       -14.6619711229       -0.8175544815        0.2904615384
 C       -14.7106042862        1.3532422928        1.2806350671
 C       -13.6645039052        2.4594399894        0.9695140196
 O       -12.4688004557        2.1765038421        1.0177311331
 C       -14.1978219468        3.9354637626        0.8031408456
 C       -13.9050176872        4.5602636061       -0.5797015558
 C       -12.5698487459        4.1245911273       -1.3453934145
 O       -12.5203604061        2.9513525674       -1.6792192458
 C       -11.4601373426        5.0603009963       -1.8985384648
 C       -10.0091694921        4.6860337558       -1.2321313622
 O        -9.6501289713        3.5096216958       -1.4146892645
 C        -9.2384140165        5.6008594024       -0.3266205530
 C        -8.3616742291        6.7979773649       -1.0047080337
 C        -6.8626432424        6.7345337140       -0.8418137977
 O        -6.3116469473        5.7252727731       -0.5491011618
 C        -6.2399118574        8.0937744782       -1.1665018970
 C        -6.4040466854        9.2251251018        0.1835809393
 O        -7.1414689095       10.2033035649        0.0559678760
 C        -5.6288921387        8.9483090803        1.4832808968
 C        -6.5185175470        9.1362525627        2.7699165462
 C        -8.0532596773        8.9209340332        2.5987754608
 O        -8.5061011878        8.2479193006        1.6794556782
 C        -8.9217855284        9.6415808848        3.6108044872
 C        -9.4259252454        8.4249114408        4.4265253519
 O        -8.6929464551        7.5282741173        4.8081083283
 C       -10.9013307443        8.4246923763        4.8924749774
 C        -8.4252072536       10.6275541414        4.7100411762
 C       -10.0685474981       10.2506381082        2.7071675222
 C        -4.6920399952        8.0821997019       -1.1505683077
 C        -6.8929163923        8.5824034361       -2.4426981411
 C       -11.1415280222        4.5234449906       -3.3361097943
 C       -11.9027694357        6.5078079496       -1.9132022221
 C       -15.9641345140        1.5173905382        0.2728831116
 C       -15.2722229249        1.5833153676        2.7630213625
 C       -12.1042168589       -2.2329586573       -2.6948673076
 C       -12.2598453730       -4.0912045579       -1.0533106723
 C        -8.5179793488        1.6652634542       -3.5567552224
 C        -7.9906428007       -0.5806786396       -4.6498727423
 H        -6.3701626782        1.2349676336       -0.8118637728
 H        -6.3723650764        2.4823870462       -1.9915089202
 H        -4.8020110223        1.4770445984       -1.7528935339
 H        -8.1243450835       -1.9198834834       -0.5991327473
 H        -7.1015080189       -2.1149572854       -2.0597464198
 H        -8.5682110760       -3.8158837100       -2.5903695791
 H        -9.5697616605       -2.2883551001       -3.1542799385
 H       -11.3014563918       -2.0993743967        1.8204445791
 H       -12.9945792564       -2.5044409037        1.1849846173
 H       -12.2771120818        0.4445678238        1.7657369729
 H       -12.9655351215       -0.8419939344        2.7913913046
 H       -13.6128030777        4.4002040358        1.6242135142
 H       -15.2851099055        3.9580644498        0.9336991678
 H       -14.0163997507        5.6958351640       -0.7236863680
 H       -14.6404779533        4.0451151577       -1.3182859552
 H        -8.4541368905        4.9899753132        0.2145876319
 H        -9.8278216642        6.2069362925        0.3902771364
 H        -8.7556627505        7.5733039522       -0.4319209448
 H        -8.4307253516        6.8714022404       -2.0851958667
 H        -4.7002034317        9.5519098179        1.4043968017
 H        -5.3196675884        7.8629960137        1.4058254913
 H        -6.3718244860       10.1960191052        3.0743740363
 H        -6.0882414618        8.6740094533        3.6402066442
 H       -11.1106182331        7.4078153281        5.3890940505
 H       -11.5708485782        8.6381869260        4.0730881758
 H       -11.2526937271        9.2240767442        5.4929133524
 H        -9.2181104818       10.6769104769        5.4080295285
 H        -8.1538332470       11.5470694543        4.2578611144
 H        -7.6115275483       10.2320614648        5.3179789286
 H       -10.6481587207       11.1081755666        3.1475500586
 H       -10.8261002808        9.5698831684        2.3832679603
 H        -9.6670958848       10.4429321003        1.7395728017
 H        -4.3629554905        9.1518740541       -1.1784449905
 H        -4.2894130668        7.5608273002       -2.0597088187
 H        -4.3546450956        7.5159737782       -0.3011220791
 H        -7.2006968928        7.8046091826       -3.1496230053
 H        -6.2284566656        9.2157220729       -3.0271558208
 H        -7.7398169316        9.1986920899       -2.2362772115
 H       -11.2729911031        3.4464922011       -3.4548642929
 H       -10.1744682202        4.8490839448       -3.6532677170
 H       -11.8479635453        4.8660406377       -3.9326552820
 H       -11.3611318694        7.0315039106       -2.6645626715
 H       -11.7142135565        7.0626262282       -0.9355516908
 H       -12.9820124187        6.5547311926       -2.1813525266
 H       -15.6831653457        2.4054641909       -0.2456798994
 H       -16.8591122716        1.5049509404        0.9249041197
 H       -15.9012989750        0.6912088457       -0.5600299125
 H       -15.4843146874        2.5951418853        2.9274539527
 H       -14.5572292830        1.2507828421        3.5004845609
 H       -16.1489326106        0.9153258449        2.9987917510
 H       -11.8766238255       -2.9271577749       -3.4668133342
 H       -11.4085308184       -1.3667173817       -2.9246215972
 H       -12.9985636006       -1.6323304130       -2.5254371118
 H       -11.7884996414       -4.8697542284       -1.6566731010
 H       -13.2621625453       -3.9086729028       -1.2884073656
 H       -12.2031957069       -4.6275770396       -0.1126646779
 H        -9.6187347926        1.5976397376       -3.6721649188
 H        -8.1968157469        2.2783227908       -4.4822638090
 H        -8.3081452702        2.3156083107       -2.7408731136
 H        -8.8695773859       -0.2280679522       -5.2808254946
 H        -7.9747471634       -1.7287948574       -4.5219869974
 H        -7.0215588189       -0.2238440174       -5.0670392126
 Na      -10.8292514984        1.4679813143       -0.3733358463
