117

 C        -6.2203985025        1.7445171217       -1.7577182983
 C        -6.3167183168        0.6202948940       -2.8408357416
 O        -5.4880590240       -0.2161689513       -3.0846841518
 C        -7.8188754821        0.2587247898       -3.2450874160
 C        -8.3298741207       -0.5225398257       -1.8774644242
 O        -9.0329252079       -0.0493489748       -1.0812460394
 C        -7.9557147357       -2.0369075997       -1.7333850934
 C        -9.1704400900       -2.9221405774       -2.0944867011
 C       -10.2732530922       -3.0030179005       -0.9595602787
 O        -9.9235244911       -3.3976255572        0.1573666009
 C       -11.8786233281       -2.7418077568       -1.2838263786
 C       -12.0175736566       -1.6320656805       -0.2460225992
 O       -11.7587252848       -0.4738654643       -0.5246264554
 C       -12.5393111574       -1.8757543938        1.1622159019
 C       -13.0050520225       -0.5853173664        1.8112308392
 C       -14.1460593473        0.0538224805        0.9563472438
 O       -14.6137511969       -0.6798737297        0.1197277114
 C       -14.7164464145        1.5003312815        1.1067507842
 C       -13.6159064009        2.6150755608        0.8141445492
 O       -12.4725721965        2.3300267736        1.0408494490
 C       -13.8737069783        4.2126748793        0.6163203271
 C       -13.7454133772        4.5686481944       -0.9158766602
 C       -12.4948297062        3.9229564807       -1.5374482286
 O       -12.3266050524        2.7172240945       -1.5865119084
 C       -11.3462706847        4.8145339402       -2.0793559024
 C       -10.0210536992        4.4374849468       -1.2142790884
 O        -9.7976631274        3.3127260689       -0.8747637240
 C        -9.0836725202        5.5107795410       -0.4195835100
 C        -8.4447935728        6.7900518318       -1.1121122780
 C        -6.9083013707        6.9309059276       -0.9313863087
 O        -6.2887184847        6.0914560165       -0.2544145543
 C        -6.0669683931        8.2599644483       -1.2064412986
 C        -6.4308466224        9.1555633509        0.0193486144
 O        -7.2236915129       10.0714799992       -0.0444361576
 C        -5.8249812301        8.6378650021        1.3755899469
 C        -6.4919383400        9.1647069125        2.6004226718
 C        -7.9352383749        8.9408145689        2.5555008693
 O        -8.3574861405        8.1156377574        1.7428293421
 C        -8.9068685417        9.7249072102        3.5184901735
 C        -9.5441845191        8.5162042903        4.4621799526
 O        -8.8617739282        7.5543474248        4.7520876206
 C       -11.0070405391        8.4253583842        4.7783968818
 C        -8.0728766098       10.6603591369        4.4162299598
 C       -10.1167398816       10.6198709332        2.7921344735
 C        -4.5100241820        8.0386608454       -1.3645127523
 C        -6.6349595108        9.0110751839       -2.4560585114
 C       -11.0968852050        4.4632678449       -3.6158985206
 C       -11.4673466173        6.3701306731       -2.1057981871
 C       -16.0542930354        1.7168844352        0.3497369593
 C       -15.0379280688        1.5713675476        2.6324514564
 C       -12.0440745615       -2.3317527056       -2.7644959228
 C       -12.7553273825       -3.9950810363       -0.9338263388
 C        -8.7553437841        1.4811433445       -3.4387024547
 C        -7.9266476450       -0.7963979716       -4.3749533099
 H        -6.7848687694        1.4221277181       -0.8327337305
 H        -6.8321303252        2.6056677542       -2.0177680949
 H        -5.2577639453        2.0411628587       -1.5484939206
 H        -7.6622067837       -2.3789080775       -0.7402831867
 H        -7.1590893727       -2.3366304298       -2.3994971850
 H        -8.8490836658       -3.9127599131       -2.0426157023
 H        -9.5330965855       -2.5708294094       -3.0491184698
 H       -11.6225309377       -2.3001565468        1.6488197630
 H       -13.4767373274       -2.4643024657        1.1594472895
 H       -12.0720033568       -0.0704569999        2.0122804773
 H       -13.4855988045       -0.8145890072        2.7787189348
 H       -13.1479919895        4.6415558967        1.2824512291
 H       -14.9134407901        4.4270249665        0.7709355828
 H       -13.6819685814        5.6048242434       -1.1121944202
 H       -14.4251597046        4.1874081187       -1.5751018905
 H        -8.2694713652        4.9771932805       -0.0084582461
 H        -9.6268813411        6.0051648689        0.3546591649
 H        -8.9633617813        7.6520013662       -0.6098307063
 H        -8.4501981582        6.7646635089       -2.2143277188
 H        -4.7420858307        8.8140436838        1.4236079130
 H        -5.9130371790        7.5755484306        1.3773630359
 H        -6.0712110687       10.1228756317        2.8524753570
 H        -6.0576298364        8.6026517658        3.4370326161
 H       -11.0352491754        7.9017392102        5.6259867526
 H       -11.6144783855        7.9828853929        3.9678061557
 H       -11.6651890814        9.3347840124        4.8439335437
 H        -8.4592637293       11.1502077549        5.2979882403
 H        -7.4074898590       11.2887980634        3.7928148723
 H        -7.3669310697        9.9535039320        4.8621120307
 H       -10.7563064266       11.0134153194        3.5333494653
 H       -10.6651109883       10.1318784679        1.9476105242
 H        -9.6419127592       11.4385510224        2.2006275995
 H        -4.2629683238        9.0666178481       -1.6363552286
 H        -4.1098673881        7.4282196345       -2.0978503881
 H        -4.0359580842        7.7791933413       -0.3361941607
 H        -6.8821367520        8.5246335290       -3.4316639663
 H        -5.8731912200        9.7855471504       -2.7358907779
 H        -7.4539246960        9.7425067686       -2.1806854548
 H       -11.1167303668        3.4138618598       -3.8403045250
 H       -10.1356213330        4.9661606922       -3.9635227147
 H       -12.1633785355        4.6318857474       -4.1266828100
 H       -10.5672944007        6.8417660396       -2.4306258583
 H       -11.6809471480        6.8504352293       -1.0881442731
 H       -12.2405350982        6.5856909773       -2.7825816758
 H       -15.7863726546        1.0283223337       -0.4402444506
 H       -16.2758578004        2.7756063294        0.2011610531
 H       -16.8382567031        1.3366686419        0.9640796852
 H       -15.5298545140        2.5237674535        3.0174112915
 H       -14.0671834933        1.4938011513        3.2424387130
 H       -15.5884883932        0.6991665664        2.9374196620
 H       -11.6323705442       -3.1857779549       -3.3222635699
 H       -11.7543069880       -1.3876339874       -3.1118643844
 H       -13.1222821932       -2.2275271702       -2.8158945347
 H       -12.6641210072       -4.8231203332       -1.6370317264
 H       -13.7990860684       -3.6655450953       -0.6525917703
 H       -12.3304346388       -4.5646654414       -0.1068754633
 H        -9.7197844615        1.3278284543       -3.9408264052
 H        -8.2666196514        2.1511483453       -4.0975571455
 H        -8.6853554527        2.1760316458       -2.5235229218
 H        -8.9840646819       -0.8159274187       -4.7938411462
 H        -7.8597144440       -1.7536134539       -3.9540270428
 H        -7.0947421761       -0.7037976627       -5.0664817532
 Na      -10.7000742048        1.4853125379       -0.2420629280
