117

 C        -6.5097877355        2.0805045176       -1.9616301658
 C        -6.5278183668        0.5861803558       -2.3359505146
 O        -5.5445915394       -0.1470811862       -2.2992978033
 C        -7.9555371470       -0.2011186486       -2.9050836070
 C        -8.4989871896       -1.0794547223       -1.7457128440
 O        -9.1349421491       -0.5443872289       -0.8579362508
 C        -8.1405767610       -2.5839211366       -1.7811215975
 C        -9.4107425456       -3.4694898240       -1.6541485142
 C       -10.4866588362       -3.1865077433       -0.6160796280
 O       -10.3818017263       -3.3407386307        0.5961424474
 C       -11.9269694284       -2.9045053148       -1.1235557032
 C       -12.3590143787       -1.6515929747       -0.2746313818
 O       -12.2040756023       -0.4986969483       -0.7452976330
 C       -12.9591070990       -1.7921222752        1.1365361015
 C       -13.4541068343       -0.3189665987        1.6784497105
 C       -14.2687251363        0.4549358728        0.8172605629
 O       -14.6778758506        0.0209680362       -0.2317856281
 C       -14.7570046349        2.0414931271        1.1580474677
 C       -13.4538197543        2.9295079785        0.9040871981
 O       -12.3847726577        2.3521871112        1.0981221638
 C       -13.4578287755        4.3315380681        0.3594427346
 C       -13.5113560392        4.0487960145       -1.1461067832
 C       -12.1526368378        3.7347683099       -1.6820934390
 O       -11.8164102527        2.5586088184       -1.8767769450
 C       -11.0039676976        4.7512120111       -2.0948191502
 C        -9.7630090690        4.5879786710       -1.0170051026
 O        -9.4297207745        3.4529064096       -0.6832916411
 C        -9.1124180316        6.0391729317       -0.6400072900
 C        -8.1450012522        6.3535315256       -1.8068624231
 C        -6.7653647489        6.9198945107       -1.1497196389
 O        -6.2006989466        6.1069935241       -0.3672533142
 C        -6.0734153482        8.1889153609       -1.5187961004
 C        -6.3346625104        9.1604074794       -0.1916720535
 O        -7.0015270236       10.1831560321       -0.3356484378
 C        -5.7928136467        8.7648532947        1.1363601101
 C        -6.4169606401        9.2188632601        2.5715585485
 C        -7.8590026544        8.9528286854        2.5694884223
 O        -8.3788729369        8.2926433169        1.7176457598
 C        -8.9143059171        9.7603314932        3.5793495048
 C        -9.6954448113        8.7172212019        4.3820274981
 O        -9.0161305705        7.8789200130        5.0211523055
 C       -11.2349997861        8.7801955563        4.6097001765
 C        -8.1360226535       10.5580682854        4.6597166004
 C        -9.7375292370       10.6707241351        2.7356823969
 C        -4.5582724314        7.9921074716       -1.6084679380
 C        -6.6135270836        9.0029077020       -2.6858838501
 C       -10.2717221987        4.3391492264       -3.3372383815
 C       -11.6152990622        6.2042317373       -2.3738908608
 C       -16.0864549005        2.3723579539        0.4537148237
 C       -14.9739519717        2.0480942501        2.7051090189
 C       -12.1164631527       -2.5809973625       -2.6205673555
 C       -12.8730260352       -4.1991004681       -0.7877892231
 C        -8.9069383109        0.9199326327       -3.1635876839
 C        -7.6398561716       -1.1764238194       -4.1959911744
 H        -7.4211992284        2.5153826160       -1.4417101920
 H        -6.2563846063        2.7115614384       -2.8708093749
 H        -5.6049632453        2.2350846681       -1.4214460815
 H        -7.4596455111       -2.7749283474       -0.9202934660
 H        -7.6375707693       -2.9752946486       -2.6432470312
 H        -9.1315489675       -4.5435688744       -1.5707429436
 H        -9.8705315608       -3.1626317190       -2.6164200001
 H       -12.2626321851       -2.0996058398        1.9458306582
 H       -13.9899791697       -2.3016239800        1.0718901105
 H       -12.6923757921        0.1787251574        2.2406797117
 H       -14.0682627319       -0.7749664916        2.4750926813
 H       -12.5188487224        4.8110887065        0.7546713311
 H       -14.3200585515        4.9568607042        0.7083904892
 H       -13.9133192460        4.7513122118       -1.8826120760
 H       -13.9545189127        3.1851602831       -1.3997760485
 H        -8.5541777876        6.0883427211        0.2976504851
 H        -9.9392832713        6.7568643259       -0.6900916059
 H        -8.4948157881        7.0658254281       -2.6198332147
 H        -7.9205351404        5.4039198930       -2.2659412448
 H        -4.6942644958        9.0604566633        1.0537993288
 H        -5.7030267682        7.6982429397        1.2010248992
 H        -6.0975053820       10.2054597678        2.8823396089
 H        -5.8984644037        8.5800917339        3.2677092059
 H       -11.5308357124        8.2012034225        5.4711149015
 H       -11.8801626546        8.3692757545        3.7706915490
 H       -11.7315782896        9.7527383641        4.8143688378
 H        -8.8480746067       10.9489003140        5.3434871365
 H        -7.6803343304       11.4738877193        4.3292762885
 H        -7.4634799290        9.9678183119        5.2175847017
 H        -9.9228342254       11.4893721749        3.3546248230
 H       -10.7025130705       10.2761304721        2.3146858176
 H        -9.1727954787       11.1627732341        1.9137879945
 H        -3.9955282335        8.9228670080       -1.7081788077
 H        -4.4064987273        7.5350075850       -2.5113762078
 H        -4.1791538776        7.3560622826       -0.7393853273
 H        -6.5810868279        8.3840245441       -3.5857367040
 H        -6.2847642193       10.0577458238       -2.9660715692
 H        -7.6631241499        9.1485185747       -2.3880438694
 H       -10.0097362955        3.2419831881       -3.4021224774
 H        -9.2770401305        4.9547063440       -3.3934649737
 H       -10.8832719305        4.5072748845       -4.2368437448
 H       -10.8479067234        6.8277151626       -2.6415020046
 H       -12.0746828873        6.6605875240       -1.3719349190
 H       -12.3343768437        6.1821325679       -3.1649017212
 H       -16.7812060610        2.1877061258        1.2847729832
 H       -16.3559522366        1.6089498927       -0.3087258780
 H       -16.0092218350        3.4250593248        0.0054339907
 H       -14.9168381442        3.0816214625        3.0359912657
 H       -14.0360407310        1.7184076433        3.2083279008
 H       -15.9319390294        1.6995518514        3.1342083232
 H       -12.3196533274       -3.4144554243       -3.2501834753
 H       -11.2922712730       -1.9140766052       -2.9802070388
 H       -13.0589752526       -2.0163448584       -2.7152314059
 H       -12.4101622223       -5.1322739414       -1.2983256699
 H       -13.9212437890       -4.1652040831       -1.2102777036
 H       -13.0278963878       -4.3337854275        0.2900462806
 H        -9.9531897363        0.5244596499       -3.3575967052
 H        -8.6784345958        1.4348818284       -4.0873726111
 H        -8.8922596652        1.8199349849       -2.4642295185
 H        -8.4831614903       -1.9106708997       -4.0444350952
 H        -6.7215335209       -1.7608626696       -4.1629822558
 H        -7.4791174160       -0.5524616419       -5.0065429565
 Na      -10.7502982313        1.3824754368       -0.3065932087
