117

 C        -6.7894757853        1.8824252849       -2.0578594484
 C        -6.5988775486        0.3283810492       -2.0772006023
 O        -5.6547048307       -0.3381343798       -1.8271627168
 C        -8.0121580530       -0.3679258600       -2.7256669290
 C        -8.6270337018       -1.3010922157       -1.5505490597
 O        -9.3100705940       -0.7476200170       -0.6924690101
 C        -8.2218954571       -2.7683819094       -1.1922020892
 C        -9.3863548458       -3.6319685281       -1.5831896144
 C       -10.4776142984       -3.2260743473       -0.6346060794
 O       -10.3295811836       -3.3408202448        0.5676492473
 C       -12.0220240416       -2.8802030970       -1.0405034767
 C       -12.4776238234       -1.5473677425       -0.3454701878
 O       -12.1410393062       -0.5182363546       -0.8184495619
 C       -13.3071150992       -1.6322680407        0.9077727419
 C       -13.6190659139       -0.2082251969        1.6412819588
 C       -14.5792775178        0.6850643515        0.9302466328
 O       -14.9618024500        0.4346547269       -0.2046788947
 C       -14.7153400508        2.1879707255        1.3812880629
 C       -13.3288327500        2.7591970276        0.9056535398
 O       -12.2485685103        2.2840390813        1.1395785956
 C       -13.3358421340        4.1449018534        0.0583683385
 C       -13.3976968992        3.9409065750       -1.4494329653
 C       -11.9695152543        3.5644351535       -2.0289441443
 O       -11.7167880644        2.4010516709       -2.2259676354
 C       -11.0612560487        4.7871473993       -2.3252985151
 C        -9.8451323633        4.8532045012       -1.0137432090
 O        -9.7203940398        3.7713039969       -0.5149109527
 C        -9.0415584349        6.1607535742       -0.6361702694
 C        -7.7828522394        6.2450252825       -1.5795505748
 C        -6.4367807346        6.6987741134       -1.1103677086
 O        -5.6424665369        6.0306110403       -0.5113427644
 C        -6.1075432606        8.2365301341       -1.4704067730
 C        -6.3261583971        9.2614898079       -0.2442698058
 O        -6.8217495072       10.3231088895       -0.2431620104
 C        -5.8073890793        8.8272586907        1.1591109193
 C        -6.5135418653        9.4576872714        2.2793603484
 C        -7.9379372261        9.0863685557        2.4355174051
 O        -8.4467397293        8.2311046542        1.6750986855
 C        -8.6980981206        9.7097954162        3.6054238688
 C        -9.7123930819        8.7062897499        4.4060733118
 O        -9.2369440880        7.9151994168        5.1284629030
 C       -11.1906914934        8.9760657341        4.3837102552
 C        -7.8920121817       10.5743498800        4.4922396109
 C        -9.7024589254       10.7156519591        2.7675522661
 C        -4.5551478514        8.3463939740       -1.6094337103
 C        -6.7524268424        8.5922075036       -2.8331022615
 C       -10.2551461882        4.3419439223       -3.6307065818
 C       -11.6954771615        6.1487488970       -2.4324555508
 C       -15.8699478693        2.8951270524        0.5816396805
 C       -14.9973433211        2.3798398027        2.8586081508
 C       -12.1185366642       -2.7353525116       -2.5268684715
 C       -12.8933614240       -4.1501412469       -0.6474395217
 C        -9.1776728503        0.5344306919       -3.3037963392
 C        -7.4599499305       -1.1738091449       -3.9188028716
 H        -7.6559082637        2.0203782317       -1.4055179228
 H        -6.9668679089        2.2399173119       -3.0233945474
 H        -6.0606782575        2.5735709551       -1.6757143886
 H        -8.0143191356       -2.8234836186       -0.1315791014
 H        -7.3504620775       -3.1701236790       -1.7580954927
 H        -9.1304794764       -4.6565183624       -1.3128846592
 H        -9.4867236662       -3.6219445391       -2.6607946409
 H       -12.7140765758       -2.0472084669        1.7047550049
 H       -14.2094971699       -2.0994961168        0.7684993276
 H       -12.6139088676        0.2804377153        1.6434393196
 H       -13.6563641479       -0.5157228676        2.6877413002
 H       -12.4776821538        4.7691802392        0.2985764260
 H       -14.0992866128        4.8632051891        0.3696471506
 H       -13.6680017263        4.8425330391       -2.0036915080
 H       -14.1948354175        3.1646805542       -1.9086434066
 H        -8.6733652109        5.9000229579        0.3411472362
 H        -9.5824103634        7.1009014856       -0.6659081593
 H        -8.1140958013        6.6363202364       -2.5604892512
 H        -7.6047406775        5.1426949350       -1.8590586745
 H        -4.7847390363        9.0500017915        1.1706079386
 H        -5.9188721605        7.7430585128        1.3964602571
 H        -6.1913092369       10.4968349802        2.3599855719
 H        -6.0325024294        8.9994738213        3.2031598453
 H       -11.7983205524        8.2750309708        4.8912005859
 H       -11.6778417630        9.0334517023        3.4328089898
 H       -11.4192686896        9.8661881152        4.9913246808
 H        -8.4730126906       11.3353944735        5.0591814976
 H        -7.3310979058       11.3279037511        3.9366750536
 H        -7.2087822461       10.0204759276        5.1745673053
 H       -10.2000615406       11.4593934100        3.4923732579
 H       -10.5083443528       10.1453934116        2.2824131532
 H        -9.1364692797       11.4204073553        2.1504599879
 H        -4.3581535511        9.4350094532       -1.6118231272
 H        -4.0844049018        7.9508694156       -2.5711231710
 H        -4.0453822510        8.0014133880       -0.7113821779
 H        -6.8798551695        7.7458437913       -3.5856984851
 H        -6.0173253001        9.2345832971       -3.2528980462
 H        -7.6142914237        9.3016497389       -2.8343918826
 H       -10.1741837488        3.3045189752       -3.7127482971
 H        -9.2930106040        4.7730393397       -3.6369583858
 H       -10.7388919323        4.7390151823       -4.6217792564
 H       -10.8691200714        6.8470358909       -2.7251834989
 H       -12.2998730055        6.4925644247       -1.5727224811
 H       -12.2825817579        6.1058389690       -3.3344034982
 H       -16.8488629782        2.5144085317        0.9199681425
 H       -15.8250101919        2.5114834158       -0.4271764571
 H       -15.7904606926        3.9276232781        0.7261479948
 H       -15.5449789702        3.2982632540        3.2368386797
 H       -14.2168130658        2.1687641302        3.5753020832
 H       -15.7954592648        1.6846415211        2.9170124987
 H       -11.6896145544       -3.5740381257       -3.1630235110
 H       -11.6088012673       -1.8486361175       -2.7311452268
 H       -13.1054170627       -2.8222979783       -2.9428056227
 H       -12.7737056106       -5.0199491307       -1.2129767249
 H       -13.9745751216       -3.9827767971       -0.7524605988
 H       -12.7952961446       -4.2073480955        0.4609172499
 H       -10.0016557974        0.0472000607       -3.7714402160
 H        -8.8087203667        1.2879098932       -4.0182304920
 H        -9.6446210963        1.1137807166       -2.4833474788
 H        -8.2961827089       -1.6412900154       -4.3496599855
 H        -6.6860028632       -1.8176254255       -3.5717065257
 H        -6.9711122739       -0.3398460295       -4.5218898789
 Na      -10.5978938429        1.1959752495       -0.4148375206
