117

 C        -7.1893006127        1.6803733384       -1.8871305210
 C        -6.9418684481        0.1957236404       -1.7759401550
 O        -6.1249962706       -0.2856067360       -1.0108015030
 C        -8.0420552945       -0.9376310790       -2.4144103110
 C        -8.7716467801       -1.2673090252       -1.1666359807
 O        -9.2778045698       -0.3577221254       -0.4974857981
 C        -8.4942993831       -2.8079999176       -0.6900729916
 C        -9.6857831606       -3.6623046227       -1.1262863236
 C       -10.8775297046       -3.2811013158       -0.2760174420
 O       -10.8174117020       -3.2553349519        0.9880375168
 C       -12.1879087870       -3.0431997698       -1.0099035159
 C       -12.6247942902       -1.5493893793       -0.3984335688
 O       -12.1003622939       -0.5065340781       -0.6760879866
 C       -13.8763444559       -1.4569575809        0.5097508955
 C       -13.8212795210       -0.0785984665        1.2781368904
 C       -14.7599433916        0.9202677221        0.7483513653
 O       -15.6927678666        0.6625039622       -0.0382521231
 C       -14.4318537780        2.4835832877        1.3205687730
 C       -13.1417590892        2.9929102524        0.6849018340
 O       -12.1301185977        2.3716821785        0.9819154231
 C       -13.1161858878        4.2052500543       -0.2265546031
 C       -12.9890103816        3.8127661552       -1.7326822106
 C       -11.6213298879        3.6350554647       -2.3423336638
 O       -11.2259354714        2.5481934622       -2.7223835754
 C       -10.6333457302        4.8201611983       -2.4379943606
 C        -9.6121556479        4.9016342068       -1.1666348121
 O        -9.6058363027        3.9301765272       -0.4367124335
 C        -8.5703098909        5.8993298694       -1.0339167066
 C        -7.2233340620        5.6187963367       -1.8030867838
 C        -6.2141056028        6.5272416867       -1.3090860602
 O        -5.4169041774        6.1600954441       -0.4131254443
 C        -6.1392954685        7.9475636065       -1.7188573546
 C        -6.3868864993        9.0026178601       -0.3963124146
 O        -6.9795796127       10.0696039856       -0.5636932196
 C        -5.9774595666        8.5758317588        1.0864615237
 C        -6.4776523096        9.5586546351        2.1627958862
 C        -7.8977157694        9.1755091612        2.5403569437
 O        -8.4186460349        8.2153723149        1.9053676856
 C        -8.9327144428       10.0733152107        3.5758423958
 C        -9.7796100402        8.9870269881        4.2790170898
 O        -9.2183108691        8.0298667819        4.8151791098
 C       -11.2899977303        9.0022435108        4.0851369341
 C        -7.9511584698       10.6659976362        4.6615902263
 C        -9.6305060907       11.3177876779        2.9194053845
 C        -4.7125651247        8.2168910782       -2.0535443321
 C        -6.8823066679        8.3487382791       -2.8912940458
 C        -9.9056261966        4.7369330353       -3.8223739011
 C       -11.5177051229        6.0701022065       -2.4932334728
 C       -15.6662201341        3.3170142738        1.0699489292
 C       -14.2153814881        2.3682337548        2.8372463870
 C       -12.1123364016       -2.9503575597       -2.5153493275
 C       -13.1797223808       -4.1484876053       -0.3921362709
 C        -8.8931086768       -0.1055262041       -3.4723847606
 C        -7.2620053519       -2.0584105615       -3.3217487447
 H        -8.0580833829        1.8694510604       -1.1854954731
 H        -7.2166578936        2.1454457639       -2.8317402403
 H        -6.4720485395        2.1773849755       -1.3478205571
 H        -8.3171606784       -2.9625139872        0.3516434176
 H        -7.5700770310       -3.0126747472       -1.2390641496
 H        -9.4561986390       -4.6505791910       -0.9051628493
 H        -9.8747164415       -3.7900420596       -2.1442956891
 H       -13.9143488895       -2.3875633823        1.1384087602
 H       -14.8106437928       -1.2737488874       -0.0095293008
 H       -12.7935208637        0.2017717317        1.5801190434
 H       -14.2990070470       -0.0783096688        2.2774620734
 H       -12.2910202587        4.8716424379        0.0578737182
 H       -13.8835000207        4.9608921257       -0.1933036710
 H       -13.5324746103        4.6364320288       -2.2711040200
 H       -13.6956562475        2.9227339958       -1.8628693663
 H        -8.1999675724        5.9698750503       -0.0593338251
 H        -8.9529199713        6.8576220282       -1.3058756404
 H        -7.3119537406        5.7720996857       -2.8578087630
 H        -6.9104905826        4.5527819889       -1.8550201843
 H        -4.9454853785        8.7527527680        1.1196187679
 H        -6.1638613427        7.4949258586        1.3183110145
 H        -6.3094583682       10.5986325835        1.8936326872
 H        -5.7368718715        9.4312429227        3.0078994847
 H       -11.8549252942        8.3279863103        4.5568523199
 H       -11.6488734625        8.7662989934        3.0962403139
 H       -11.7434586785        9.9580595755        4.4546545277
 H        -8.4250686840       11.3143668058        5.4082482160
 H        -7.1958638127       11.2480007609        4.1428984209
 H        -7.4180899421        9.9294186326        5.2646030781
 H       -10.4476425992       11.6161203179        3.5864273593
 H       -10.1925644639       10.9527086627        2.0349950884
 H        -8.9195224492       12.0909211684        2.6688643920
 H        -4.5528849192        9.2487273909       -2.3264481549
 H        -4.4737782707        7.5207065713       -2.8157189723
 H        -3.9549943147        7.9851423490       -1.2271232678
 H        -6.2425858699        8.2132467199       -3.8006758158
 H        -7.2954478278        9.3531209848       -2.8352929983
 H        -7.6274578348        7.5284399931       -3.1013988235
 H        -9.0765172059        4.0692838043       -3.6190389099
 H        -9.4335811101        5.7206456932       -4.1115630509
 H       -10.3908843109        4.5920153960       -4.8486512811
 H       -10.8938380105        6.9061257310       -2.4330920413
 H       -12.3332331966        6.0949147318       -1.6092582082
 H       -12.0187362537        6.1082433399       -3.3893534379
 H       -16.6641798220        2.9537869296        1.3129568841
 H       -15.6781589700        3.5146175606        0.0122490474
 H       -15.5604470182        4.1078088091        1.7244282196
 H       -14.0595558743        3.4505594986        3.2808202912
 H       -13.3808152080        1.6492413060        3.0459953121
 H       -15.0584437044        1.9958902569        3.3695402625
 H       -12.0338122729       -4.0151579525       -2.9414201400
 H       -11.3716822440       -2.4139106501       -3.0477500470
 H       -13.0967607803       -2.5915383672       -2.8471250257
 H       -12.8330767112       -5.1743020217       -0.6641811467
 H       -14.2540994995       -4.0837634997       -0.8730566598
 H       -13.2098903455       -3.9645570734        0.7182837046
 H        -9.8154861445       -0.4520763999       -3.9259265786
 H        -8.2011825155        0.1576346164       -4.2871435301
 H        -9.4053252046        0.8477524505       -3.0422444986
 H        -7.9768647739       -2.8396854273       -3.4495751444
 H        -6.3848982715       -2.3117230133       -2.8523876824
 H        -7.3285552793       -1.7415452179       -4.3420227538
 Na      -10.7338152560        1.5232936802       -0.4716826285
