117

 C        -7.3029152713        1.5478823912       -1.9054885850
 C        -6.9755949638        0.0858723707       -1.7098060719
 O        -6.0728519651       -0.3045331456       -0.9936357415
 C        -7.9025721469       -0.8314400898       -2.4685164469
 C        -8.7360239133       -1.2574519899       -1.1351357352
 O        -9.3318892558       -0.3964850646       -0.5502160080
 C        -8.5840899131       -2.5816910978       -0.3078525185
 C        -9.6680292407       -3.7265719244       -0.8617456667
 C       -11.0504953430       -3.3782205206       -0.1570361556
 O       -10.9923978588       -3.2067018493        1.0444216117
 C       -12.4351494619       -2.9564904788       -0.9408816200
 C       -12.8283129276       -1.6016499111       -0.4407107657
 O       -12.0380247998       -0.6974336436       -0.7677072846
 C       -14.0077571878       -1.4799975871        0.4762790003
 C       -13.9150571701       -0.1651699081        1.2388978488
 C       -14.7664662495        1.0800602581        0.8160111310
 O       -15.6993410563        0.9593599314        0.0691712077
 C       -14.4609850053        2.5403809526        1.3609281078
 C       -13.1233304932        2.9463574337        0.6486809264
 O       -12.0882023051        2.3222573433        0.8802022076
 C       -13.0932843358        4.1754997450       -0.3281789041
 C       -12.9968157201        3.7109467939       -1.8609272407
 C       -11.5168882402        3.6556222902       -2.3731939600
 O       -11.0497788522        2.5364666326       -2.7562305967
 C       -10.5095640580        4.8720706577       -2.4987903877
 C        -9.4836429115        4.7150123139       -1.2151643194
 O        -9.3890425950        3.8172226526       -0.4148048892
 C        -8.5474306510        5.9572142039       -1.2295429800
 C        -7.2127809004        5.5608173868       -1.8306943772
 C        -6.0752621987        6.5020644452       -1.2065538359
 O        -5.4163890598        5.9937945908       -0.2578771845
 C        -6.0503433621        7.9424111330       -1.6882624003
 C        -6.4674454286        8.9323788071       -0.4750609009
 O        -7.1126940496        9.9226607085       -0.7730365382
 C        -6.0086076300        8.5541872409        0.9405181405
 C        -6.4503135540        9.4909630810        2.1494783700
 C        -8.0141142222        9.2825980886        2.4099731393
 O        -8.4989318552        8.2800107808        1.9674968742
 C        -8.7708286751       10.1070707173        3.5834041137
 C        -9.7328984117        9.0049110753        4.2314659493
 O        -9.3460486353        7.9859307011        4.7809947579
 C       -11.2599029728        9.1165925689        3.8952183229
 C        -7.8652659736       10.8308607785        4.6842421981
 C        -9.6150760318       11.1517555372        2.9810432641
 C        -4.5428812069        8.3883868082       -2.1037410182
 C        -7.1486433147        8.2282761064       -2.9593429709
 C        -9.7982929431        4.8652790530       -3.8151168395
 C       -11.3146226647        6.3458608597       -2.5698961564
 C       -15.6583682090        3.4552613798        1.1963096055
 C       -14.2054139287        2.4374106046        2.9169794969
 C       -12.2117994525       -2.9485194891       -2.4066918361
 C       -13.3396588472       -4.1186138320       -0.5017733832
 C        -8.8703558259       -0.1088313746       -3.3822356417
 C        -7.1351157474       -2.0841496507       -3.0208887484
 H        -8.2547108914        1.8130641095       -1.4838312498
 H        -7.2395277158        1.7660960895       -2.9360181279
 H        -6.6624260344        2.1994066000       -1.3547344617
 H        -8.8857270662       -2.2642942994        0.7084451828
 H        -7.5375373904       -2.8331930206       -0.2932823120
 H        -9.3409703252       -4.6936095968       -0.5519994618
 H        -9.7286093828       -3.9599736675       -1.9239773693
 H       -13.9938256971       -2.3550341625        1.0869342513
 H       -14.9197939953       -1.4406885356       -0.0557749443
 H       -12.8374784377        0.0420327736        1.3153868099
 H       -14.1037891675       -0.2470064455        2.3212375084
 H       -12.3690639715        5.0186801862       -0.1816747380
 H       -14.0248517955        4.7800141071       -0.2626540033
 H       -13.6121780517        4.5186998734       -2.5153209599
 H       -13.5936286306        2.8218656050       -1.8946805733
 H        -8.1904071123        6.3295379160       -0.2835514008
 H        -9.0787468996        6.7909060316       -1.6769625663
 H        -7.2372945391        5.4942104118       -2.9409197824
 H        -7.0709228686        4.5164060004       -1.6301400511
 H        -4.9242332308        8.3491127883        0.9907626938
 H        -6.5209250445        7.6114460199        1.1274795845
 H        -6.2923984113       10.5656772452        2.0280368184
 H        -5.8009425275        9.2230287676        3.0392160450
 H       -11.9035309624        8.3171025867        4.3256127656
 H       -11.5433317534        8.9117062258        2.8874135936
 H       -11.7445023952        9.9837777882        4.2360533846
 H        -8.5208120764       11.4499125163        5.3508056738
 H        -6.9066928979       11.3421569164        4.3851237168
 H        -7.5763592865       10.0728448590        5.4322870557
 H        -9.9559325810       11.7438883955        3.8298601349
 H       -10.5822600020       10.9064464337        2.4240774677
 H        -8.8896913701       11.7056626544        2.3385966282
 H        -4.6547209509        9.4391948099       -2.5324219281
 H        -4.2555994565        7.6797680912       -2.8415798308
 H        -3.6650225670        8.4031695911       -1.3836102192
 H        -6.7691201278        7.7960888313       -3.8784059585
 H        -7.3765272641        9.3411098333       -3.1125018370
 H        -8.0028383733        7.5654219818       -2.7909340636
 H        -9.0376092546        4.0863900578       -3.8728247265
 H        -9.3141528128        5.8108585979       -4.0670978494
 H       -10.3769894585        4.8162639237       -4.6278299018
 H       -10.6171388148        7.1439258856       -2.3259094776
 H       -12.0883250688        6.3722148338       -1.8721359641
 H       -11.7983233393        6.5552067537       -3.6005030879
 H       -16.3537112077        3.3844318354        1.9851124181
 H       -16.1842327721        3.3168557845        0.2892795854
 H       -15.3355288531        4.4673699926        1.4922793305
 H       -14.2297707813        3.4142444442        3.3439221043
 H       -13.2878637968        1.8588784137        3.1029533464
 H       -14.9666558661        1.8076840010        3.4534528579
 H       -11.8610389423       -3.8924014323       -2.8320613644
 H       -11.3863075119       -2.2326366706       -2.7669743564
 H       -13.0889730009       -2.5327431141       -2.9135388472
 H       -12.9372935089       -5.1173182983       -0.9287826689
 H       -14.3245918322       -3.9679337170       -0.9859657822
 H       -13.4510040268       -4.1878108772        0.5836790851
 H        -9.6183232650       -0.8605339906       -3.7441245988
 H        -8.5031001165        0.3831502529       -4.2631868911
 H        -9.5701025506        0.5146207996       -2.9158487271
 H        -7.8911493447       -2.8509866273       -3.2706641393
 H        -6.5036499408       -2.2531783791       -2.1624368186
 H        -6.8068917814       -1.9479457284       -3.9536193643
 Na      -10.6657738595        1.4531295724       -0.5961013714
