117

 C        -7.0205612969        1.6007322393       -1.7977310610
 C        -6.9262378783        0.1402469117       -1.6102126412
 O        -5.8584962021       -0.1884601984       -1.1213974620
 C        -7.8739135395       -0.9743863987       -2.1012571750
 C        -8.8593398645       -1.2483351939       -0.8083393882
 O        -9.6724158106       -0.3973276320       -0.4865663846
 C        -8.6677643806       -2.5610738135       -0.0025146588
 C        -9.7768024997       -3.5058133875       -0.3862464267
 C       -11.3761020963       -3.3713231711        0.1153185510
 O       -11.5441396036       -3.2381414931        1.3153207771
 C       -12.5689772460       -3.0390132748       -0.8769514863
 C       -12.9056592955       -1.5527360031       -0.4379319417
 O       -12.2562763383       -0.6553315178       -0.8935175384
 C       -14.2227325906       -1.1819605513        0.3762068696
 C       -14.0432916253        0.0426492138        1.3436441075
 C       -14.8267145764        1.2560080561        0.9164493843
 O       -15.7131564097        1.1892723240        0.0593052467
 C       -14.4148130160        2.6742380370        1.5357991293
 C       -13.1136600736        2.9859687142        0.5630356187
 O       -12.1907210482        2.2211971394        0.7421245092
 C       -13.1826113895        4.0878485233       -0.5122886037
 C       -12.8977514888        3.6108609699       -1.9653796051
 C       -11.3871973376        3.6081347514       -2.4708904559
 O       -10.7894709852        2.6379678950       -2.7189373029
 C       -10.5463745671        4.9650997399       -2.5648351132
 C        -9.4460212087        4.7092939470       -1.4364582568
 O        -9.3553286613        3.6133519732       -0.9100779089
 C        -8.3854816433        5.7547969510       -1.0253735638
 C        -6.9329099928        5.4096864710       -1.6244069350
 C        -5.9759020454        6.4284121162       -1.1760266439
 O        -5.1630050896        6.1640713324       -0.3364619513
 C        -6.0610446201        7.9925525988       -1.7690718996
 C        -6.5679100874        8.8676940437       -0.5353506925
 O        -7.3746976796        9.7555425535       -0.8115818871
 C        -6.1207779869        8.5410674109        0.9823571801
 C        -6.6530728939        9.5960415445        1.9085117380
 C        -8.1131944723        9.2247590087        2.3223038053
 O        -8.8160008422        8.3609979833        1.7131262743
 C        -8.6781250054       10.0756608764        3.6052438068
 C        -9.8020310278        9.0675174683        4.2309243255
 O        -9.2985161778        8.1589382682        4.8551572111
 C       -11.2372476694        9.1556048687        3.7785550070
 C        -7.7427324103       10.5095084653        4.5964724678
 C        -9.2371469617       11.2878322171        2.6818187194
 C        -4.6226992654        8.4323200704       -2.0640106969
 C        -6.8938267742        8.1663221845       -3.0452309187
 C        -9.5860869972        4.7774350096       -3.8659803518
 C       -11.2799721277        6.2676081325       -2.3925614964
 C       -15.5044935809        3.6856011273        1.3970162141
 C       -13.8934115326        2.5632730093        2.9470579163
 C       -12.1697903120       -3.1417824302       -2.3896371333
 C       -13.6342576472       -4.1505387343       -0.7442726282
 C        -8.7567228813       -0.6833982030       -3.3463198659
 C        -6.9938986716       -2.2664544555       -2.5741627934
 H        -8.0575239978        2.0882312488       -1.5786687186
 H        -6.7439413975        1.8030029124       -2.8794104265
 H        -6.3705567143        2.1565855231       -1.1281809567
 H        -8.6577540685       -2.1377508920        1.0154908046
 H        -7.6446473672       -2.9399437199       -0.2587582489
 H        -9.3898549558       -4.5559978663       -0.1883114362
 H        -9.6536733746       -3.5955835296       -1.4923249191
 H       -14.6838943408       -1.9673326560        1.0691409456
 H       -15.0338651654       -1.0754398756       -0.4262625850
 H       -13.0144214627        0.2825629915        1.6486453187
 H       -14.3890848911       -0.2905006561        2.3132808259
 H       -12.4394503066        4.8679826765       -0.4657841162
 H       -14.1605824691        4.6311181944       -0.4318481145
 H       -13.3527471483        4.2480650744       -2.6040584493
 H       -13.4059792884        2.6247828706       -2.0097015500
 H        -8.2197589294        5.8552132817        0.0910764017
 H        -8.7369058346        6.7921881075       -1.2571907600
 H        -7.0526309779        5.3255385877       -2.6943905198
 H        -6.6985321450        4.3439211956       -1.3881908238
 H        -5.0221055013        8.6420836372        1.0469560784
 H        -6.3881172322        7.5129587260        1.3537734388
 H        -6.6322196948       10.6298178693        1.5092739468
 H        -6.0599322855        9.5807211745        2.8302034206
 H       -11.8971895477        8.3960159105        4.0354993883
 H       -11.2296378410        9.0248548118        2.6622059074
 H       -11.8149653827       10.1225905039        3.9846524154
 H        -8.2774625109       11.0379474218        5.3823838707
 H        -6.9648870217       11.0853955864        4.1046018016
 H        -7.2038822665        9.7259255102        5.1600729851
 H       -10.0392204374       11.8268513081        3.2615329182
 H        -9.7199263086       10.8692535085        1.7969737836
 H        -8.4012574795       11.9211500818        2.3616093618
 H        -4.4561371130        9.4782805807       -2.1732301316
 H        -4.0643963596        7.8516796882       -2.8345483493
 H        -4.1672323563        8.1147067241       -1.1069968610
 H        -7.1162343007        7.1825598138       -3.5241847287
 H        -6.2227007953        8.6173276740       -3.6788596134
 H        -7.8559268317        8.6722855709       -2.8558754362
 H        -9.2448270220        3.7819393616       -3.9614902614
 H        -8.7073862664        5.4064891658       -4.0639737874
 H       -10.2047931395        4.9007144898       -4.8388222094
 H       -10.6778591608        7.1479045546       -2.4988684932
 H       -11.8131479718        6.3831696361       -1.3131513596
 H       -12.0557005477        6.2058504963       -3.0512263409
 H       -16.1671280242        3.7040772506        2.3216771383
 H       -16.1598608276        3.3388320081        0.5050954152
 H       -15.2764316398        4.7433690280        1.3929380729
 H       -13.9152312052        3.6149102348        3.3469260953
 H       -12.9513891656        2.1142124467        3.1234191703
 H       -14.5340191648        1.9481624579        3.4581561403
 H       -11.3797913628       -3.8826808035       -2.6403221766
 H       -11.7017456418       -2.2625669925       -2.7534364109
 H       -13.0970694795       -3.0322629785       -2.9425766732
 H       -13.3610034439       -4.9980475818       -1.2712870179
 H       -14.6132405247       -3.6859952309       -0.9872170812
 H       -13.5844217551       -4.5661065774        0.2594299662
 H        -9.0304440180       -1.5215556888       -3.8973350713
 H        -8.3592430772        0.0364343588       -4.0585471790
 H        -9.7339563753       -0.1445226135       -3.1050236431
 H        -7.6984924520       -2.8043813066       -3.1964227875
 H        -6.4313698787       -2.6847367163       -1.7376547793
 H        -6.4349875052       -1.8311802585       -3.4897156945
 Na      -10.6162632897        1.4898417702       -0.9159165537
