117

 C        -7.0988787000        0.5819326770       -1.5943844363
 C        -6.6660422162       -0.7011454752       -1.0392630210
 O        -5.6278726281       -0.8042167723       -0.3995124378
 C        -7.8497226010       -1.8134280015       -1.1083970111
 C        -8.9461277643       -1.4211658531       -0.1620538318
 O        -9.4570681836       -0.2813808265       -0.1668219022
 C        -9.5166231275       -2.3053332065        1.0201706513
 C       -10.5086599483       -3.4467376888        0.4416324949
 C       -11.7921002947       -2.7278230236        0.4127344522
 O       -12.2729777380       -2.3127762394        1.4624536555
 C       -12.7645582718       -2.4403359622       -0.9841733062
 C       -13.2987449409       -0.9905454565       -0.7196812636
 O       -12.6645752209       -0.0621346470       -1.1312661452
 C       -14.3947672678       -0.6605816184        0.4447792003
 C       -13.9934312399        0.3542328436        1.5046139055
 C       -14.6256663345        1.7208333400        1.0211701553
 O       -15.6550396631        1.8278301825        0.3996236018
 C       -13.8098080917        3.0315059794        1.3736024477
 C       -12.9819585910        3.1702976999        0.0702556623
 O       -11.9944617470        2.4827335494       -0.0089574030
 C       -13.5389846171        4.0541656449       -1.0421426435
 C       -12.8855819769        3.8699613329       -2.5113114604
 C       -11.3394818169        3.7585711942       -2.6710534735
 O       -10.9206534149        2.6645422814       -2.9533822823
 C       -10.3675362454        5.0144977152       -2.6165949402
 C        -9.0908546687        4.4919346586       -1.6386180636
 O        -9.0398356015        3.3572639954       -1.2897385408
 C        -8.1065715680        5.4422352931       -1.0587676715
 C        -6.7053124841        5.0160014106       -1.5960160916
 C        -5.5694851491        6.1064490218       -1.5070571398
 O        -4.6317881648        5.7553241086       -0.7839914326
 C        -5.8542856180        7.5182270689       -1.9090627077
 C        -6.7882824378        8.3310871521       -0.8441000862
 O        -7.8589760428        8.7479632891       -1.3477831050
 C        -6.3391546805        8.7478086931        0.5322937526
 C        -7.0556641180        9.9508030934        1.2606282397
 C        -8.2046519815        9.3480947903        2.1934940209
 O        -8.7360925454        8.2509950810        1.9061326958
 C        -8.7675973581       10.1503364994        3.4336958188
 C       -10.1130568881        9.4302960376        3.8552154482
 O       -10.0750059678        9.0379998800        5.0172646014
 C       -11.1332624148        9.1858304472        2.8820015412
 C        -7.7766121462       10.0756513620        4.5543299859
 C        -8.9388114670       11.6339649847        2.9841495283
 C        -4.5305571361        8.3176287535       -2.2000584646
 C        -6.6633073270        7.6311216771       -3.2048473081
 C        -9.8618412409        5.0353168076       -4.0560742757
 C       -10.9345263005        6.2029363144       -2.0769861798
 C       -14.8391187108        4.1799134021        1.6567126040
 C       -12.9081893228        2.7990269102        2.5899452999
 C       -12.0215940412       -2.4957452556       -2.4011152042
 C       -13.7463472615       -3.6809565761       -0.9254029378
 C        -8.3835523224       -1.9792224580       -2.4768066524
 C        -7.1970653627       -3.2743000094       -0.6889094578
 H        -7.0964463140        1.3729345219       -0.7963041402
 H        -8.0967620758        0.6589613709       -1.8535403196
 H        -6.4634849494        0.8046846807       -2.3343225776
 H        -9.9377103004       -1.5471764026        1.6152837037
 H        -8.7633729845       -2.7523875734        1.6151681290
 H       -10.6329729364       -4.2150140135        1.1778788728
 H       -10.0769594763       -3.6696338810       -0.4875640406
 H       -14.7837655396       -1.5895352941        0.8210535370
 H       -15.3004988097       -0.2849346203        0.0160042167
 H       -12.9049278051        0.3923379373        1.7172307537
 H       -14.5106626150        0.3267963190        2.4833020375
 H       -13.2977807647        5.0914158456       -0.8888828048
 H       -14.5512204677        3.6864829106       -1.3102550866
 H       -13.3769004185        4.5964670398       -3.1172216463
 H       -13.3164549780        2.8289862835       -2.8477923064
 H        -8.1486716720        5.5819041225       -0.0080620696
 H        -8.2334326937        6.4074236643       -1.4579479235
 H        -6.7533151628        4.6698184093       -2.6246170574
 H        -6.4040305332        4.2119620072       -0.9299751921
 H        -5.3205175213        9.1187535323        0.2361097271
 H        -6.2429048652        8.0266907873        1.2808755388
 H        -7.7075040434       10.6280487789        0.6047350587
 H        -6.3564287827       10.5271242508        1.8337326240
 H       -11.1124149740        8.1886193488        2.6857106250
 H       -11.1880439255        9.8642271801        2.0253985344
 H       -12.1383926919        9.4041370392        3.3124057619
 H        -8.0865214693       10.7143606192        5.3169722519
 H        -6.8716061885       10.5283531168        4.2786728808
 H        -7.5997352707        9.1096266340        4.9592487743
 H        -9.6510582222       12.0704998029        3.6939537895
 H        -9.1870703646       11.6521867745        1.9812411610
 H        -8.0139063129       12.1740689161        3.1453535541
 H        -4.8027216247        9.3188190447       -2.5363962035
 H        -3.7048717854        7.9920980902       -2.8848871962
 H        -4.0355515960        8.5530300265       -1.1956366292
 H        -7.0945374602        8.7028910178       -3.2360867474
 H        -7.5195368513        7.0073935924       -3.3922342832
 H        -5.8249365668        7.3606627789       -3.8317978443
 H        -9.3763524313        4.1377826991       -4.4029671451
 H        -9.1315848310        5.7907292024       -4.3391440098
 H       -10.7731556603        4.9238227557       -4.6933239743
 H       -10.1880480005        6.9835020007       -1.9363202228
 H       -11.5706885341        5.8820322299       -1.1832123261
 H       -11.5980795422        6.6771037360       -2.7406679393
 H       -15.3741814048        4.0319470079        2.5619238344
 H       -15.5805061000        4.1607185377        0.8487302889
 H       -14.5015844009        5.0900178009        1.3685811752
 H       -13.0664179741        3.6328364097        3.4076735304
 H       -11.8135040974        2.7834220569        2.2887813673
 H       -13.1765890189        1.9571331277        3.1710809540
 H       -11.3356438879       -3.2873962596       -2.7435857388
 H       -11.5256507456       -1.5767666049       -2.4875162398
 H       -12.7291471429       -2.5299963692       -3.2348434031
 H       -13.1818623210       -4.5266834274       -1.2603218426
 H       -14.5316076991       -3.5057484187       -1.7011244416
 H       -14.2167396388       -3.6362771438        0.1077602166
 H        -9.0063537721       -2.8472553291       -2.6284146701
 H        -7.6851450383       -2.0695775121       -3.3376288915
 H        -9.0762154155       -1.0568620271       -2.7943234094
 H        -8.0028607509       -3.9095575508       -0.5403416850
 H        -6.5337108972       -3.2011962391        0.0966244869
 H        -6.5210799190       -3.3624793084       -1.5232719057
 Na      -10.6270573668        1.1890796887       -1.4375207093
