117

 C        -6.9932114473        0.6338167820       -1.5962273621
 C        -6.7234861568       -0.7705819537       -0.8617138215
 O        -5.7023643654       -0.9338067421       -0.2937477874
 C        -7.7979162598       -2.0380705824       -0.9748839863
 C        -8.9802443887       -1.4445799275        0.0421262669
 O        -9.5092307001       -0.3952860947       -0.2260414504
 C        -9.5493209713       -2.3620861396        1.1453740157
 C       -10.5174563697       -3.3494135874        0.5251397200
 C       -11.8668133561       -2.6320180236        0.4039307033
 O       -12.3894800759       -2.0553949992        1.3909415241
 C       -12.7533652234       -2.3569315376       -0.8216250484
 C       -13.1839285537       -0.9030801646       -0.5986212231
 O       -12.6617197145        0.0550656233       -1.1837172208
 C       -14.3967871971       -0.6058975755        0.3325618315
 C       -14.0074634244        0.4024893727        1.3602889550
 C       -14.6014515498        1.7757750255        1.0771899277
 O       -15.6268531052        1.8292760663        0.4581874718
 C       -13.7162668057        3.0924480682        1.3370836834
 C       -12.9480891268        3.2587453482       -0.0113791126
 O       -11.9504817594        2.5511702457       -0.0856513195
 C       -13.4946205045        4.1074184501       -1.1957045958
 C       -12.9194000059        3.9461385071       -2.6236062998
 C       -11.3169637197        3.7328505780       -2.6837429043
 O       -10.8504747266        2.6780496017       -3.0741407555
 C       -10.4153841533        4.9304109438       -2.5220049363
 C        -9.1386708299        4.4303335461       -1.6692233818
 O        -9.0120558023        3.2303735731       -1.4556671180
 C        -8.1784420319        5.4095508994       -1.1121313797
 C        -6.8009558690        5.0575329071       -1.7188885576
 C        -5.6753337149        6.0229819453       -1.2602404593
 O        -4.6195125790        5.6360270872       -0.7789619958
 C        -5.8584187469        7.5353433516       -1.8697224278
 C        -6.7809252581        8.3538598542       -0.9618924593
 O        -7.9045657168        8.6197195865       -1.2466506699
 C        -6.2981178410        8.7148496672        0.5089558014
 C        -7.1968601818        9.8102726738        1.0830009834
 C        -8.3316997802        9.2556169349        1.9696061994
 O        -8.4578384088        8.0371552426        2.0241436068
 C        -8.7257388186       10.1740665940        3.2078018351
 C       -10.1534160802        9.4506827894        3.8383705727
 O       -10.2611699977        9.1718598664        5.0035386148
 C       -11.2058977567        9.3293564597        2.7628859412
 C        -7.5512012509        9.9683572466        4.3183074639
 C        -9.0478136217       11.7243677035        3.0339064241
 C        -4.6027958708        8.3548321214       -2.1079159482
 C        -6.6678567317        7.5135782504       -3.3360571487
 C        -9.7543217078        5.0549704659       -4.1628642957
 C       -10.9119082293        6.2890757518       -1.9556749122
 C       -14.8083764709        4.1936908576        1.7573940340
 C       -12.6572564414        2.8587067977        2.5066481807
 C       -12.1001223787       -2.2775580535       -2.2625034518
 C       -13.8509480229       -3.6020383628       -0.9980341934
 C        -8.2680968601       -2.1887858733       -2.4392697764
 C        -7.3136572513       -3.4712822119       -0.3828722926
 H        -6.8517082243        1.4265964587       -0.9262943973
 H        -8.0177426250        0.8617919223       -1.8556664953
 H        -6.2657108030        0.6531492905       -2.4254999072
 H        -9.9754532615       -1.6686622685        1.8335559783
 H        -8.7284798692       -2.8637990362        1.6539877226
 H       -10.7685375805       -4.0568819621        1.3224409478
 H        -9.9973365261       -3.6346200115       -0.4353978460
 H       -14.6591553653       -1.5246203086        0.8780760682
 H       -15.2638319393       -0.4208072247       -0.1886224093
 H       -12.9123964701        0.4514838169        1.5124196658
 H       -14.4574361793        0.1827934857        2.3165715504
 H       -13.2357052406        5.1638242106       -1.0888688045
 H       -14.5060539797        3.7109127161       -1.3061771531
 H       -13.2803208101        4.7803955961       -3.2106793792
 H       -13.3746379117        3.1328308207       -3.0188368306
 H        -8.0891519092        5.2249002177       -0.0111063741
 H        -8.3111192596        6.5566236566       -1.1294238766
 H        -6.7165410318        5.1501809684       -2.7648758548
 H        -6.6560971985        3.9839886943       -1.3967391970
 H        -5.2723324314        9.0060699299        0.6265546118
 H        -6.4796863505        7.8439497192        1.2058487702
 H        -7.7833418102       10.3474795254        0.3354052700
 H        -6.6314594564       10.5760640517        1.6582104492
 H       -10.9218417352        8.4857821720        2.1344013396
 H       -11.3925155210       10.2313496500        2.2722114794
 H       -12.2042171988        9.1176495760        3.1349562733
 H        -7.6732801423       10.6745578666        5.1300195993
 H        -6.5567925534       10.2287353854        4.0566642092
 H        -7.6118707840        8.9987063893        4.7555423340
 H        -9.9340582402       11.8647388284        3.6522033946
 H        -9.0126474620       12.1301619741        1.9723582528
 H        -8.3019514156       12.2014538079        3.6311347385
 H        -4.9176577501        9.4013514940       -2.3624940045
 H        -3.8894571891        8.0215734872       -2.8433358034
 H        -3.9650431225        8.4955234748       -1.1607866640
 H        -6.7555078555        8.5612542745       -3.7186359832
 H        -7.7608653884        7.3324618394       -3.1604459928
 H        -6.1837382053        6.6792083892       -3.8802757585
 H        -9.1137802495        4.3943473810       -4.7071226540
 H        -9.2531858927        5.9922632121       -4.2263757717
 H       -10.5764869616        5.0973696778       -4.7281693874
 H        -9.9983692939        6.8926575712       -1.8991440138
 H       -11.4724388060        6.1772260364       -1.1585045298
 H       -11.4963919536        6.9805494767       -2.6958634466
 H       -15.3876959870        3.7734585567        2.5780191137
 H       -15.5031037962        4.4226080939        0.9901987077
 H       -14.4583605980        5.1933973449        1.8762072069
 H       -12.5302950143        3.7697105288        3.0777834090
 H       -11.6733415581        2.4957015221        2.1448496523
 H       -13.0912767143        2.2593252431        3.3035421458
 H       -11.7273327291       -3.2806128670       -2.6164697707
 H       -11.3522249267       -1.5267039365       -2.4155820354
 H       -12.8480456363       -2.2252645035       -3.0266754136
 H       -13.1971817125       -4.4546561361       -1.0005606937
 H       -14.3848452648       -3.6800778008       -1.9643799851
 H       -14.5041728689       -3.4370408660       -0.2023160706
 H        -9.1204907124       -2.8468627490       -2.7146947602
 H        -7.5225698659       -2.4319411847       -3.2063715986
 H        -8.6455796914       -1.1973248606       -2.7570214917
 H        -8.2435655466       -3.9994338043       -0.0899246583
 H        -6.6166095964       -3.3601249086        0.4473545425
 H        -6.7318381363       -3.7782405596       -1.1728887776
 Na      -10.5761940366        1.2479847504       -1.2431692749
