117

 C        -6.5032949621       -0.3957412397       -1.3187533105
 C        -6.4430690249       -1.4446099375       -0.2581535109
 O        -5.6910368260       -1.3238952390        0.7177390451
 C        -7.5883148924       -2.5894965927       -0.3584942565
 C        -8.9622720522       -1.9922395204        0.2327363409
 O        -9.4097223086       -0.9255653324       -0.1546594035
 C        -9.6135950088       -2.6933695810        1.4029348794
 C       -11.1644024149       -3.2093552288        0.9985388583
 C       -12.2347594095       -2.2106465817        0.6893800571
 O       -12.7217477852       -1.6811270963        1.6079121276
 C       -12.8030093506       -1.8807224153       -0.7960427264
 C       -13.2716145299       -0.4066245831       -0.5975649627
 O       -12.7732746481        0.4105533779       -1.3683104607
 C       -14.5519650602       -0.0393783654        0.0207299691
 C       -14.3264185413        0.9419850313        1.2167292122
 C       -14.5570677379        2.4820536418        0.9487082230
 O       -15.5861787474        2.8499566896        0.4203301503
 C       -13.4281391655        3.5725242856        1.2923898985
 C       -12.7456956287        3.7009196567       -0.0754011361
 O       -11.5885035589        3.4885912301       -0.3280938591
 C       -13.5821953267        4.2906427553       -1.2281285449
 C       -12.9858356781        4.1222305244       -2.7012272796
 C       -11.5336854272        3.6878068917       -2.7968045082
 O       -11.2635649979        2.5587881335       -3.2126060734
 C       -10.4253202140        4.6642290355       -2.5081199006
 C        -9.2344711694        3.9533462985       -1.7086271131
 O        -9.0778447372        2.7322383341       -1.5983267780
 C        -8.1235740208        4.9418617894       -1.1419210456
 C        -6.7441882824        4.8340019039       -1.9490864261
 C        -5.7473128064        5.9280028217       -1.4945754676
 O        -5.0845966395        5.8208812855       -0.4813797205
 C        -5.7853354851        7.3218356085       -2.1608873757
 C        -6.7990427383        8.1850756234       -1.3227177960
 O        -7.9673439876        8.0458177133       -1.6711327981
 C        -6.4511812907        8.9458255208        0.0953831678
 C        -7.5576320356        9.7173811668        0.6858109011
 C        -8.2216726588        9.1299360249        2.0109563111
 O        -8.4237852943        7.9581591685        2.0752985558
 C        -8.6900119968        9.9875118204        3.1428363270
 C       -10.1925591158        9.6120464405        3.4024319282
 O       -10.6272415300        9.5886144466        4.5094994117
 C       -11.2174412275        9.4288347857        2.3204816974
 C        -7.7921943500        9.8412721403        4.4424994255
 C        -8.6542355899       11.5349861080        2.7495266390
 C        -4.4470665424        7.9301824102       -2.0188832744
 C        -6.1761985670        7.1423659004       -3.6378274136
 C       -10.0402831522        5.0406972661       -4.0165697935
 C       -10.9084597894        6.0295027927       -1.8400613570
 C       -14.0762637893        4.8759234666        1.6361377106
 C       -12.3061665336        3.2003813305        2.3425664361
 C       -11.8153309269       -1.9979418806       -1.8742932713
 C       -13.9951277694       -2.8587689111       -0.9723512718
 C        -7.8063117533       -2.8840743653       -1.8423679842
 C        -7.0287910085       -3.8770702324        0.4901880655
 H        -5.5443211747        0.2346720193       -1.3244284157
 H        -7.3430541331        0.1740220302       -0.9562602455
 H        -6.7012081735       -0.7255663963       -2.3284620702
 H        -9.7263962282       -1.9072776764        2.1634222874
 H        -9.1572173419       -3.5144166184        1.9482008647
 H       -11.4808779151       -3.9505893810        1.8361945080
 H       -10.9698335943       -3.7697752447        0.0213090444
 H       -14.9373883112       -0.9492885042        0.3944841895
 H       -15.1432930228        0.3212239693       -0.8138271404
 H       -13.3077772258        0.9077690275        1.4744177700
 H       -15.0565977544        0.6443188521        1.9733444449
 H       -13.8118027810        5.3661838351       -1.0794065642
 H       -14.4251608794        3.5848931936       -1.3208658557
 H       -13.1035966576        5.0344560137       -3.1423827094
 H       -13.7046832730        3.5100991764       -3.2600170550
 H        -7.8141650823        4.3815941120       -0.1813766313
 H        -8.4500440575        6.0030427801       -1.0114429600
 H        -6.9627740944        4.8247979636       -3.0191023149
 H        -6.3724825822        3.8474459982       -1.8457931630
 H        -5.5649296857        9.5488777027       -0.0067613899
 H        -6.0228553696        8.1680367257        0.8145758557
 H        -8.3073614040        9.9266221125       -0.0519168130
 H        -7.1002356795       10.6879706234        1.0356713542
 H       -11.5411759407       10.4195872068        1.8962136238
 H       -12.0949118121        8.9830837263        2.7788985821
 H       -10.9731931972        8.8692286538        1.4714207588
 H        -8.0219622397       10.4743706227        5.2595784332
 H        -6.7616295276        9.9828687898        4.1598789930
 H        -7.8073145596        8.8600654898        4.8320810851
 H        -8.6051341545       11.6129677223        1.6795387344
 H        -7.7947957225       12.0594334214        3.1216632981
 H        -9.4951131084       11.9238062350        3.3790651731
 H        -4.4160675099        8.9500264722       -2.4682354575
 H        -3.6722868458        7.2864447716       -2.5625236390
 H        -4.0019689956        8.0780299081       -1.0493895541
 H        -6.6184690170        8.1185860799       -3.8769109821
 H        -7.0096475984        6.3580514588       -3.7209357517
 H        -5.2659112266        6.8147409760       -4.2434462897
 H        -9.7050308160        4.2089191763       -4.4298079431
 H        -9.4013996590        5.8133598096       -4.1548581150
 H       -10.8692426212        5.4916185519       -4.5659084637
 H       -10.1465492859        6.7829598692       -1.7943605927
 H       -11.3521753437        5.7474070055       -0.7537907719
 H       -11.7469671177        6.2717996852       -2.3744393939
 H       -14.1789700792        5.0560790886        2.6739254509
 H       -15.0371967632        4.9950822585        1.2042264012
 H       -13.4140764903        5.7446949458        1.4153059055
 H       -11.5591616584        2.6613304691        1.7500820607
 H       -12.7484979966        2.5531881080        3.0988105137
 H       -11.7872583605        4.0424571272        2.8271104291
 H       -11.1791714677       -2.8454388617       -1.8888646710
 H       -11.2803048859       -1.0246029005       -1.9722820958
 H       -12.3322789773       -2.1320464171       -2.8337091817
 H       -13.4891999733       -3.8221351566       -1.1790395591
 H       -14.3848181581       -2.4570210078       -1.8496119994
 H       -14.7230375994       -2.8852153887       -0.0950996778
 H        -8.6428550624       -3.5968196454       -2.1007129559
 H        -6.8636146016       -3.2988763684       -2.2247320901
 H        -8.1825248209       -2.1381763277       -2.5062403095
 H        -7.7873375326       -4.6180739211        0.6013203010
 H        -6.8016739890       -3.3750227028        1.4378561088
 H        -6.2091810207       -4.3416642449       -0.1490412418
 Na      -10.7481194501        1.1094365243       -1.4978702141
