117

 C       -12.9014460416       -0.4798173134       -8.9780680930
 C       -11.7099031921       -1.1838021269       -8.2791918161
 O       -11.6388679962       -2.3667998542       -8.1608883550
 C       -10.5664916684       -0.2028825495       -7.7073929021
 C       -11.1150790628       -0.0525446666       -6.1695288639
 O       -11.9139399859        0.8027410504       -5.9434990402
 C       -10.7209474452       -1.1409412926       -5.1296085588
 C       -11.0162992922       -0.5969734571       -3.6846154338
 C       -10.0827545345       -1.1625521098       -2.6304818906
 O        -9.6239235403       -2.2713352472       -2.7141467345
 C        -9.9398560535       -0.2803916001       -1.3034239120
 C       -11.0634412425        0.6834994539       -1.0605642763
 O       -11.1587147847        1.6217423008       -1.8508563433
 C       -12.1574627944        0.4004257632        0.1008543869
 C       -13.2767177991        1.4357164320        0.0120936531
 C       -12.6621323083        2.8792413921        0.6078859310
 O       -11.7085408665        2.7101406813        1.3715139434
 C       -13.2266006737        4.2562219152        0.0471026909
 C       -12.8589882064        5.5083019313        0.9041693001
 O       -11.7244995278        5.6389421015        1.3474504704
 C       -13.8938420330        6.5759776290        1.0592941386
 C       -13.5347210297        7.4721151531        2.2352897466
 C       -12.2309785700        8.2862910473        1.9536752575
 O       -11.9793803115        8.8433195801        0.8967981643
 C       -11.1317682886        8.4733500411        3.2435300273
 C        -9.8124334530        7.8253229881        2.6731994463
 O        -9.3980778996        6.7032849018        2.9757330475
 C        -8.8618966112        8.6895466972        1.7201045451
 C        -7.3979011171        8.1707628129        1.4984863295
 C        -6.6844099355        8.1459042334        2.8560668036
 O        -7.0674660448        8.4589093396        3.9514885020
 C        -5.2992631620        7.4230775659        2.8211555452
 C        -5.5591306524        5.9022095158        3.0668311115
 O        -5.7999668786        5.1315824818        2.1503599942
 C        -5.7868085454        5.4074992813        4.4446100878
 C        -5.9183392156        3.8625397017        4.4498920166
 C        -7.1342763853        3.4439266147        3.6689449419
 O        -8.2604996355        3.8830850049        3.9096560178
 C        -7.0348357876        2.2441565203        2.5987619869
 C        -7.3646506303        2.9918221173        1.0900928830
 O        -8.4541291933        3.4543086947        0.8492855120
 C        -6.2920590851        3.2291999909        0.0877133952
 C        -5.6623716990        1.5138347985        2.6239608180
 C        -8.1792643800        1.3472496495        2.9619795591
 C        -4.5102101958        7.5353803525        1.5477764608
 C        -4.5059824379        8.0174043210        4.0352075435
 C       -10.9550630265        9.9447035617        3.7924646979
 C       -11.6265631865        7.6239843002        4.4703173482
 C       -12.5960878450        4.5842487244       -1.3995451501
 C       -14.8134801182        4.1026236125       -0.2279661752
 C        -9.6264466635       -1.2618352773       -0.0978498636
 C        -8.5949579160        0.5555128931       -1.4291437778
 C        -9.2712277360       -0.9639139526       -7.7955519250
 C       -10.6149112270        1.2239486148       -8.3873621514
 H       -13.5314771196       -1.2806797456       -9.1568475761
 H       -12.7212734211       -0.1003343105      -10.0256869795
 H       -13.5407215207        0.2280940426       -8.4534385563
 H        -9.6489879248       -1.3307815211       -5.1095575346
 H       -11.1337557124       -2.0997514112       -5.4436802441
 H       -12.0015554796       -0.9327289106       -3.4363273676
 H       -11.0473530496        0.5306678756       -3.6309849107
 H       -11.6860541725        0.4938380712        1.1071970521
 H       -12.5979406716       -0.5436893816       -0.1334305365
 H       -14.0144479532        1.1238376820        0.7843979605
 H       -13.6542370053        1.4243048909       -0.9767503862
 H       -14.7596069179        6.0455357623        1.2504102652
 H       -13.9620721679        7.2579573913        0.1860615755
 H       -13.2906507780        6.8533471481        3.0966950312
 H       -14.2910554720        8.1948963378        2.5455951564
 H        -8.7483840503        9.6359075528        2.2442952040
 H        -9.4022443721        8.8314536155        0.7966067920
 H        -6.8568707527        8.6885509176        0.7383579897
 H        -7.2972080156        7.1373965906        1.1386688257
 H        -6.5710895036        5.9925145635        4.7573890939
 H        -4.8601444941        5.6563326816        4.9361513147
 H        -6.0566080872        3.5143920450        5.4434913596
 H        -5.1101639393        3.3671592004        3.9635862992
 H        -6.3856440113        2.6444744746       -0.8085947880
 H        -5.2272686462        3.0536352866        0.3910962739
 H        -6.2407875828        4.2652267896       -0.3059706529
 H        -5.6419529788        0.8552526516        3.5483557855
 H        -4.7901961935        2.0911496227        2.5208764716
 H        -5.6815319996        0.7970939856        1.8278077639
 H        -9.1974969099        1.8129016936        3.0079233200
 H        -8.0324000136        1.0190624225        4.0003519408
 H        -8.3103856189        0.5517572898        2.3161814476
 H        -4.2104748762        8.5474481658        1.3228464333
 H        -5.0074014488        7.1888257451        0.6624121676
 H        -3.6063381258        6.8429260831        1.5893764936
 H        -3.5585921764        7.5878699642        4.5123155752
 H        -5.3248203978        8.0864052897        4.8229373008
 H        -4.3360499724        9.1281916532        3.8644485348
 H       -11.8552518673       10.3353053992        4.2878008309
 H       -10.8426597235       10.5526391712        2.8981812507
 H       -10.0065427517       10.0455939801        4.3611003588
 H       -11.7822320425        6.6402704209        4.2451576681
 H       -12.6015342776        7.9935604627        4.8228552736
 H       -10.9633091921        7.5964741488        5.3199013165
 H       -11.7249217600        5.2425481331       -1.3389886011
 H       -13.3768282932        5.0657159772       -2.0285042406
 H       -12.1953254133        3.7214811100       -1.8441728099
 H       -14.9655753947        3.2447003139       -0.9068791863
 H       -15.2476628162        4.9919504689       -0.7193714593
 H       -15.2302001302        3.9762948937        0.7300277611
 H        -8.8172205617       -1.8996737966       -0.4190733608
 H       -10.5213928655       -1.8575629067        0.2086582970
 H        -9.3129724260       -0.7184481733        0.7907067913
 H        -8.0741274147        0.3259184823       -2.3549065719
 H        -7.8760866135        0.3659870713       -0.6453766319
 H        -8.9034780367        1.5670387292       -1.6283166825
 H        -9.3507058467       -2.0640209698       -7.6905528825
 H        -8.4873821463       -0.6894026328       -7.1203368192
 H        -8.7850527921       -0.8356226864       -8.7501750056
 H       -11.5962755507        1.6141855158       -7.9771752901
 H       -10.5156909783        1.1342379134       -9.4770795486
 H        -9.7566997314        1.7571652955       -8.0204354551
 Na      -10.0518557117        4.2471963191        2.5671152846
