117

 C        -6.4257513892       -0.4519159462       -1.1847369455
 C        -6.5002828944       -1.5357770025       -0.0855668744
 O        -5.8164673722       -1.5131432076        0.9111614712
 C        -7.5466672566       -2.6164208503       -0.2977524439
 C        -8.9179981545       -1.9398216637        0.3470946985
 O        -9.3780288898       -0.9866424343       -0.2467696251
 C        -9.7115565440       -2.7120941878        1.3588990254
 C       -11.0598927848       -3.2490255765        0.9775014421
 C       -12.1686236132       -2.1135120865        0.7662306457
 O       -12.8437939261       -1.5992437221        1.6628052563
 C       -12.8171813823       -1.7931121635       -0.7724362920
 C       -13.4747593921       -0.2013846827       -0.7988913786
 O       -12.8336129834        0.6659166202       -1.2740024483
 C       -14.6746087570        0.1593675941        0.0959270887
 C       -14.3171574623        1.0994996610        1.2860747937
 C       -14.5495389012        2.6421776051        0.9424085698
 O       -15.5325039895        2.9847576707        0.3378814154
 C       -13.4353205174        3.6605375708        1.2311808439
 C       -12.7244459521        3.7756836107       -0.1402385024
 O       -11.6244364061        3.3212506034       -0.2939090449
 C       -13.6480089301        4.2874259445       -1.2459468546
 C       -12.9994911868        4.1323579385       -2.6898623643
 C       -11.5285319831        3.6042284988       -2.6239039352
 O       -11.3339772357        2.4714398465       -3.0551220852
 C       -10.3973993435        4.6466095095       -2.5498837224
 C        -9.0743654344        3.9686037522       -1.8182605849
 O        -9.1322790168        2.8228088253       -1.6109402962
 C        -7.9416649676        4.8017533087       -1.1721448566
 C        -6.6767619190        4.6612162876       -1.9516127984
 C        -5.8439859384        5.8589438295       -1.4117967893
 O        -5.1671341238        5.6454140710       -0.4212613398
 C        -5.7722321406        7.2917511543       -2.2171675599
 C        -6.8117687887        8.2215847867       -1.3126220847
 O        -8.0296549744        8.2629612660       -1.6490984982
 C        -6.5233289502        8.8197139389        0.0243253576
 C        -7.6025513075        9.7606020281        0.5632805182
 C        -8.2701674725        9.1854588806        1.9603891056
 O        -8.3682898646        7.9145983100        2.0351990059
 C        -8.7573363313       10.0863704824        3.0895458652
 C       -10.2851944217        9.7452479965        3.4214840455
 O       -10.7131615807        9.5611485540        4.5712319622
 C       -11.0475202723        9.3813548982        2.0707604786
 C        -7.8004039124        9.6767969645        4.2106509368
 C        -8.7318610860       11.7217549842        2.8581123184
 C        -4.2434532686        7.8725837994       -2.1170945104
 C        -6.2053690187        7.0528397212       -3.7232710664
 C       -10.0083486805        5.0854425510       -4.1444001865
 C       -10.8353471078        5.9487416566       -1.8747536331
 C       -14.0010903550        5.1183606649        1.7293459913
 C       -12.3115890976        3.2017845462        2.2820291472
 C       -11.7791071821       -2.1055455442       -1.8417758154
 C       -13.9687523263       -2.8438533296       -0.9033134470
 C        -7.7713489920       -3.2054889232       -1.7043331532
 C        -6.9822199720       -3.8375693855        0.5543585184
 H        -5.5113099307        0.2511477985       -1.0811737676
 H        -7.4252046030        0.1180760986       -1.1197565372
 H        -6.4291145910       -0.8783942663       -2.1790512168
 H        -9.8373911902       -1.9556396120        2.2270233916
 H        -9.2230104837       -3.5390057228        1.9089940687
 H       -11.4287313905       -4.0204121333        1.7587339557
 H       -10.7967254639       -3.7840964583        0.0184656587
 H       -15.0817371860       -0.7837896772        0.4442913039
 H       -15.3447700763        0.7386619218       -0.6226293634
 H       -13.2855049249        1.0263498557        1.5261334701
 H       -15.0505237606        0.9144260567        2.0715944222
 H       -13.8267006300        5.3178717534       -1.0680084225
 H       -14.5273731899        3.6526136702       -1.2307360065
 H       -13.0801592624        5.1542627228       -3.0575049358
 H       -13.6584954811        3.5277047731       -3.4259240885
 H        -7.6962249849        4.2745719965       -0.2252412029
 H        -8.2379140442        5.8487194002       -1.0935454963
 H        -6.9456308080        4.7829509556       -3.0421281183
 H        -6.2491249148        3.6773177322       -1.8999350791
 H        -5.4762819241        9.3156768045       -0.0854872917
 H        -6.2830843171        8.1194039921        0.8072892258
 H        -8.4920823651        9.5986535867       -0.1211441700
 H        -7.3874056809       10.8074538576        0.5783359580
 H       -11.7188637579       10.1357300963        1.8653899852
 H       -11.6731698335        8.4462275647        2.0157497950
 H       -10.3675479632        9.3981710647        1.2134383670
 H        -7.8500269068       10.3606332274        5.0356453604
 H        -6.7559610771        9.5644628953        3.8622667479
 H        -7.9869504102        8.6904570573        4.6857568828
 H        -8.2731937792       11.8940833667        1.8693823328
 H        -8.1091852652       12.2586023193        3.5119840675
 H        -9.7473689683       12.0397023124        3.1816334443
 H        -3.9659433851        8.8623711977       -2.3006836280
 H        -3.4786950916        7.2052897094       -2.5664366273
 H        -3.9695016034        7.7717836688       -1.0312066419
 H        -5.9768030493        8.1708493714       -4.0208516553
 H        -7.2069865621        6.7017881590       -3.8859620375
 H        -5.4624839105        6.3732399718       -4.1307958207
 H        -9.3757391946        4.3141833175       -4.6434654613
 H        -9.5746014603        6.0692247009       -4.2044643199
 H       -10.8274893039        5.3418682198       -4.7160610107
 H       -10.0586429583        6.7218055276       -2.1184914415
 H       -10.9659282973        5.9013556310       -0.8876774380
 H       -11.7672458221        6.1016904622       -2.4041484682
 H       -14.3063215439        5.3041697304        2.7571625445
 H       -14.9341314797        5.2829065827        1.1120352400
 H       -13.3099747714        5.9201445693        1.6947506871
 H       -11.9524022776        2.1471976745        2.0800043793
 H       -12.7398227132        3.3142355206        3.2361742986
 H       -11.5048754938        3.8245653405        2.2602993871
 H       -11.3811759852       -3.1374015878       -1.7337721424
 H       -10.9701317521       -1.4251200961       -1.9011471823
 H       -12.1987858305       -2.1483895203       -2.9180466119
 H       -13.4926893821       -3.7804753352       -0.9817399230
 H       -14.4116587960       -2.4287842902       -1.8221312024
 H       -14.6409514779       -2.8756499165       -0.0318976028
 H        -8.4534095895       -3.9549200488       -1.9073014365
 H        -6.8193317453       -3.5133756049       -2.0354719225
 H        -8.1539778751       -2.4219523441       -2.4412893331
 H        -7.8217858483       -4.4730911940        0.9160997746
 H        -6.4960691114       -3.2992204765        1.3695097569
 H        -6.4608829547       -4.5709701709       -0.1528078807
 Na      -10.6706650951        1.0085813648       -1.5954108421
