117

 C        -6.2826402042       -0.8143237430       -0.9055577592
 C        -6.5188877030       -1.6947958556        0.3523276215
 O        -5.9769951303       -1.7087824670        1.4181892161
 C        -7.6273031279       -2.8252051254        0.0540812256
 C        -8.9717136269       -2.0707727929        0.2401431144
 O        -9.2148650419       -1.1987768528       -0.5785613498
 C        -9.8986731961       -2.3231915636        1.3111859970
 C       -11.2744914189       -2.9276336447        0.9172743329
 C       -12.4499316052       -1.8465127045        0.8497716484
 O       -12.5832021591       -1.1908249215        1.8363278274
 C       -13.1966262516       -1.5630708997       -0.6067488454
 C       -13.5262159065       -0.0234087198       -0.4409916996
 O       -12.7430176327        0.7507517528       -0.9437998548
 C       -14.7958553272        0.3880187038        0.3306108123
 C       -14.4820206565        1.3409784960        1.5377114268
 C       -14.5416908782        2.7883582674        1.0156991383
 O       -15.5854055907        3.1157448083        0.5228139883
 C       -13.3839971977        3.7922258622        1.1199002496
 C       -12.7102145221        3.8063884519       -0.2203715553
 O       -11.8201209814        3.0816209222       -0.4866802646
 C       -13.2930491586        4.7776158262       -1.2597444576
 C       -12.8494378728        4.1779144209       -2.6261823460
 C       -11.4666195946        3.5370703460       -2.8130663508
 O       -11.3440167349        2.4623304061       -3.3201704455
 C       -10.2774977766        4.4958913135       -2.5627969068
 C        -9.0807402180        3.7689362931       -1.8681788201
 O        -8.8642160402        2.5996961921       -1.7880227504
 C        -8.0420632952        4.8149489789       -1.3775269463
 C        -6.5803906427        4.5742005491       -1.9200890977
 C        -5.7209542599        5.7712685595       -1.5298495029
 O        -5.2467321485        5.6052656051       -0.4131448611
 C        -5.7415347211        7.2154877238       -2.2169617039
 C        -6.8743910806        8.1856600200       -1.5315544859
 O        -7.9964024487        8.3268460717       -2.1017159490
 C        -6.5377149139        8.6079991294       -0.1199618811
 C        -7.3430838382        9.7269305846        0.4769305831
 C        -8.2215291784        9.1991409032        1.7294693617
 O        -8.2479901032        7.9557525115        1.7791714451
 C        -8.7364963541       10.0737359499        2.9163746438
 C       -10.2439328140        9.5993115492        3.0559761910
 O       -10.7828776636        9.5964066538        4.1636784717
 C       -11.1959718365        9.4469443344        1.8490113156
 C        -8.0667242027        9.6667721577        4.2020680834
 C        -8.5653524217       11.6037796700        2.6611329142
 C        -4.3340793928        7.7771594878       -1.8388852174
 C        -6.0193258698        6.9539603832       -3.7324195410
 C        -9.6630072791        4.7089940334       -4.0445618128
 C       -10.7274701909        5.8879328968       -1.9934418363
 C       -14.0627500385        5.1405222872        1.4929022550
 C       -12.3387267039        3.4018183900        2.2100214296
 C       -12.1698649474       -1.7480173842       -1.9603146064
 C       -14.4457579876       -2.5362618397       -0.7073557939
 C        -7.5670439660       -3.3817062672       -1.3573607124
 C        -7.4583623830       -3.9876933848        1.1056567413
 H        -6.0939685631        0.2492474396       -0.5940526422
 H        -7.0090876158       -1.0097684204       -1.6463760077
 H        -5.4275260876       -1.1059891458       -1.3820412534
 H       -10.1051209793       -1.5447391617        1.9912859686
 H        -9.4461715300       -3.0518292393        1.9363694848
 H       -11.6853819769       -3.8765790951        1.4656372644
 H       -11.1523913660       -3.3071454823       -0.1279868335
 H       -15.0385008423       -0.5209519469        0.6945534213
 H       -15.4609968072        0.7826135141       -0.4131009672
 H       -13.4839444599        1.1754322924        1.8646280627
 H       -15.2550946136        1.3268803903        2.3368010414
 H       -13.0278283061        5.8624787171       -0.9666900092
 H       -14.4367071320        4.6765113216       -1.2053693593
 H       -12.9942400044        4.9434206391       -3.2757608447
 H       -13.5162870739        3.3963619128       -3.0004662741
 H        -7.8084357234        4.5251919671       -0.3103015196
 H        -8.3350734880        5.8525397405       -1.6343522086
 H        -6.6381469959        4.3046722739       -2.9821007025
 H        -6.2033086542        3.7261302976       -1.4177885454
 H        -5.4890068629        8.8480783320       -0.0136744993
 H        -6.5907490052        7.7151272313        0.5320042410
 H        -8.1120539450        9.9824957344       -0.2299445386
 H        -6.7790760951       10.6890383456        0.6523551163
 H       -11.6385734014        8.4981164857        1.9112038418
 H       -10.7390337986        9.5369135695        0.7862744025
 H       -11.8885597864       10.2919493322        1.8665201596
 H        -8.7887103081        9.8059555939        4.9660386530
 H        -7.2024817416       10.2792517845        4.3851680817
 H        -7.6173199917        8.6970531531        4.3240857026
 H        -7.5440782203       11.9487848406        2.7498354094
 H        -9.0629764142       12.0409757933        3.4593554835
 H        -9.2246032620       11.8560397269        1.7411894008
 H        -4.1189231698        8.8385078219       -1.8758999822
 H        -3.3924412109        7.3542112478       -2.3332706709
 H        -4.2449152802        7.6506646080       -0.7580697442
 H        -5.4295218002        6.0003210603       -3.9827086951
 H        -5.7971242797        7.9166498493       -4.1339355268
 H        -7.0981087505        6.8892009694       -3.8111553746
 H        -9.4752720586        3.7420775544       -4.5181529311
 H        -8.7216608029        5.2225320094       -3.9311017094
 H       -10.1501707554        5.3795990101       -4.7392696872
 H        -9.8640277958        6.5373851970       -2.4103349479
 H       -10.7147723426        6.0672285701       -0.9793362334
 H       -11.4898765003        6.2130400240       -2.6987050436
 H       -14.6217794677        5.0698918077        2.3840122524
 H       -14.7969986509        5.4338674333        0.7666170776
 H       -13.4069708238        5.8501429961        1.8987239566
 H       -12.9192883570        2.8552059490        3.0692990744
 H       -11.7463480182        4.2863222368        2.4627563551
 H       -11.5515761409        2.7486769256        1.8126661973
 H       -12.1656615675       -2.7297346706       -2.3947490041
 H       -11.1498544339       -1.6481564317       -1.6417774075
 H       -12.2763294604       -0.8866796052       -2.6398111619
 H       -14.1503294508       -3.4977818259       -0.3913151731
 H       -14.9219541867       -2.3243733018       -1.6341648686
 H       -15.1034518841       -2.3725898675        0.1851180720
 H        -8.1192830306       -4.3171786082       -1.4502853312
 H        -6.5759619313       -3.6929924610       -1.7557651029
 H        -7.9421351459       -2.6198482332       -2.1685851204
 H        -8.0529756947       -4.7644944576        0.7865424087
 H        -7.7417155393       -3.4704047329        1.9867216701
 H        -6.4450046310       -4.4640743363        1.2420576463
 Na      -10.2627240499        0.7200846126       -1.4705852330
