117

 C        -5.7785468075       -1.1573147542       -0.3023126160
 C        -6.5226624175       -1.9344523140        0.8264628143
 O        -6.2746569224       -1.8513478821        2.0037647573
 C        -7.7461303114       -2.9517967628        0.3334402249
 C        -8.9663334790       -1.8959996859        0.1092801023
 O        -9.1037040567       -1.3381611837       -0.9721033348
 C       -10.0133471994       -1.9513267324        1.1818982357
 C       -11.3121951140       -2.7508747962        0.8704985198
 C       -12.5881421922       -1.7852978741        0.7929535626
 O       -12.6308992059       -1.0249790419        1.7592491915
 C       -13.5380949696       -1.5237063645       -0.3446477689
 C       -13.8605274809        0.1100921078       -0.1332846887
 O       -12.9691929077        0.8010610654       -0.6079838700
 C       -15.1852419161        0.5373216143        0.6009940910
 C       -14.6592402391        1.6530235792        1.6777164860
 C       -14.5503970779        3.0873017566        1.0349211499
 O       -15.5706238749        3.3953437286        0.4208854011
 C       -13.2968909232        4.0652420450        1.2096825542
 C       -12.4688367762        3.9399592463       -0.1751041996
 O       -11.3228257083        3.6744082770       -0.3470135853
 C       -13.4085471396        4.2328941304       -1.4076685506
 C       -12.6800747415        4.0506598605       -2.7479652349
 C       -11.2801962314        3.4775398833       -2.8408690750
 O       -11.1627418320        2.3142231317       -3.1624905738
 C       -10.1058813042        4.3653301191       -2.9053234641
 C        -8.9863861302        3.7220696813       -1.8108646395
 O        -8.9745591415        2.5441280805       -1.5911735711
 C        -8.0010718496        4.6206420222       -1.0778904090
 C        -6.6121901102        4.7411403867       -1.8117669721
 C        -5.5704219633        5.8531005541       -1.4442503847
 O        -4.9646606280        5.6835172839       -0.4051687797
 C        -5.4100285522        7.1328869102       -2.3051967204
 C        -6.4931935359        8.0704934885       -1.4779103314
 O        -7.6267266793        8.0180350787       -1.9912176635
 C        -6.2007193388        8.5625926567       -0.0720284770
 C        -7.3895726150        9.3812134776        0.3915540727
 C        -8.2640919923        8.8384863754        1.5182791630
 O        -8.3675985157        7.5886774754        1.6076563079
 C        -8.8535408511        9.8588736928        2.5511227538
 C       -10.4147538697        9.6170943277        2.6682253026
 O       -10.9184720919        9.5770735735        3.7725846118
 C       -11.1547667864        9.7495944924        1.2850149441
 C        -8.1185862715        9.7133879960        3.8959231137
 C        -8.7460076146       11.4825004155        2.1350647094
 C        -3.8867036279        7.5847042806       -2.1918880650
 C        -5.7379817879        6.9904322340       -3.7951356681
 C        -9.4665799442        4.1412380173       -4.2569993390
 C       -10.2753206027        5.8518759060       -2.8045794107
 C       -13.8522117458        5.5058755369        1.2486066647
 C       -12.3720456937        3.5590857251        2.2788352060
 C       -12.9234967338       -1.6231094636       -1.8437621940
 C       -14.7034629358       -2.5279568616       -0.2989481943
 C        -7.5479272595       -3.5117928630       -1.0261721149
 C        -7.9209372376       -4.0395146224        1.4985959547
 H        -4.9614462606       -0.6621213768        0.1708362247
 H        -6.4460497004       -0.5785370915       -0.9592700654
 H        -5.4054981112       -1.8123708059       -1.0062246397
 H       -10.1006620943       -0.9164462643        1.4693054555
 H        -9.6341293669       -2.5616560245        1.9907840005
 H       -11.4684868320       -3.5148030745        1.6915959147
 H       -11.2124464408       -3.5015473587        0.0918453739
 H       -15.5629546682       -0.3490118727        1.0041029763
 H       -15.8292110903        0.9342364208       -0.2329446172
 H       -13.7197689463        1.3866668677        2.1824291173
 H       -15.3974425078        1.6571917974        2.5284965339
 H       -13.8725872749        5.2511068644       -1.1785154915
 H       -14.3680527309        3.7020583042       -1.1075931744
 H       -12.5555599202        4.9212049165       -3.2863139481
 H       -13.1802188196        3.3915534104       -3.4216265564
 H        -7.9063898243        4.2724522447       -0.0104639481
 H        -8.5258301138        5.6101920426       -1.0745187233
 H        -6.9144900406        4.7756388418       -2.8950281576
 H        -6.0801998992        3.8852382650       -1.5526315684
 H        -5.2959884109        9.1548166052        0.0701940475
 H        -6.0405000927        7.6331725691        0.4603475924
 H        -8.0175604351        9.1285727113       -0.4650690573
 H        -7.3010058893       10.4941339529        0.3251471715
 H       -10.6921848223       10.4736652633        0.6619909904
 H       -12.2869414081        9.9500254866        1.4060969826
 H       -11.3598356151        8.8055236686        0.7498080606
 H        -8.4779144337       10.3848738594        4.7243427044
 H        -7.0331803403        9.9772293148        3.7171003656
 H        -8.0602254741        8.6322963043        4.3032126991
 H        -7.8953955478       11.7292493310        1.4565155542
 H        -8.6339743029       12.0184406578        2.9918981966
 H        -9.6136709237       11.7628971008        1.5132181798
 H        -3.5081527259        8.5359787985       -2.4082068050
 H        -3.1580154485        6.9438789279       -2.7132583104
 H        -3.6122597850        7.5452674679       -1.0952812496
 H        -5.1955389725        6.1505668674       -4.2298293493
 H        -5.4124806510        7.9895176639       -4.0297756888
 H        -6.7382990268        6.8423431056       -3.9575249058
 H        -9.0138221701        3.0349644722       -4.1645408356
 H        -8.5366548083        4.7420889831       -4.5202387273
 H       -10.1443174336        3.9774195225       -5.0272076544
 H        -9.3354518418        6.4962369734       -2.9811993421
 H       -10.6816036314        6.0458998720       -1.8663116124
 H       -10.9985739314        6.2260887542       -3.6099325106
 H       -14.2878778549        5.7074613526        2.2601434378
 H       -14.7849602532        5.6489774755        0.5498685738
 H       -13.0992795624        6.2603627155        1.0168938925
 H       -12.9079389120        3.5319925772        3.3111958064
 H       -11.5289959924        4.2758310937        2.3753179667
 H       -11.9287269023        2.6069714496        1.9829663064
 H       -11.9996001883       -2.1955213090       -1.8568155734
 H       -12.7433378143       -0.6949000823       -2.3340889562
 H       -13.7582289027       -2.0291210794       -2.4824559774
 H       -14.3068283365       -3.2543670780       -0.9925649817
 H       -15.5953366860       -2.0742949910       -0.8370920670
 H       -14.9172708749       -2.9682654523        0.7038488118
 H        -8.3226236566       -4.1966779365       -1.1968144266
 H        -6.6111825184       -4.1108462226       -0.9822085508
 H        -7.1768276951       -2.8613906214       -1.9027925793
 H        -8.7234278714       -4.7263837731        1.2792304077
 H        -7.8459553831       -3.5368505198        2.3987179093
 H        -6.9058402169       -4.4554146211        1.4805491154
 Na      -10.8595023631        1.1700368692       -1.1620429966
