117

 C        -5.7441705311       -1.3404393432       -0.1397712307
 C        -6.5876705511       -1.9878522778        0.8915073323
 O        -6.4150461255       -1.8835659183        2.1035925879
 C        -7.7523932135       -2.9147532240        0.3426510952
 C        -8.9994309553       -1.9473846194        0.1661874908
 O        -9.1034641616       -1.2693839117       -0.8665832362
 C       -10.1281083657       -1.8025256603        1.2290238164
 C       -11.3148775572       -2.5813173335        0.7738841341
 C       -12.5498952622       -1.6448333459        0.8455078560
 O       -12.7820077068       -1.0729513346        1.9690591239
 C       -13.6346344786       -1.5169762480       -0.3644085395
 C       -14.0591430162        0.0893675089       -0.1309168992
 O       -13.3371317782        1.0049431133       -0.5448060677
 C       -15.1356500228        0.6605157061        0.7924244854
 C       -14.6255096111        1.7544985141        1.6650448906
 C       -14.5541508189        3.1381221718        0.9918339308
 O       -15.4975349236        3.5597851796        0.3459245542
 C       -13.2645469481        4.0122124178        1.1168877384
 C       -12.5447761322        3.9293097831       -0.2474590393
 O       -11.3204327423        3.7439310700       -0.2429619745
 C       -13.3154031545        4.1670996197       -1.5359815318
 C       -12.7290017719        4.1956300161       -2.9148036335
 C       -11.2850236073        3.4351280499       -2.9329775645
 O       -11.1692219875        2.2030729949       -3.1112722616
 C        -9.9348662074        4.2701492070       -2.8797456627
 C        -8.9798790984        3.8243994975       -1.7598085539
 O        -8.8925169164        2.5984350133       -1.4446428414
 C        -7.8560090595        4.8569520452       -1.2478111969
 C        -6.6173449868        4.6661658576       -2.0457410982
 C        -5.5223776241        5.6555295247       -1.4145258900
 O        -4.9221588351        5.5632750015       -0.3928347612
 C        -5.3655769673        7.0491887782       -2.2796682685
 C        -6.4348048303        7.9446104015       -1.4423738533
 O        -7.5327323429        8.0555643632       -1.8974395442
 C        -6.2979869276        8.5395449688       -0.1008426422
 C        -7.4425113582        9.4666442037        0.2152463859
 C        -8.2058042334        8.9365155284        1.3674742981
 O        -8.3047576301        7.7211290217        1.5804333311
 C        -8.8853426462        9.9451342103        2.4269442936
 C       -10.4792316896        9.7339083312        2.6027629204
 O       -11.0542885188        9.4486747578        3.5955053475
 C       -11.2409056138        9.6458347998        1.3394871415
 C        -8.2495931587        9.6173946870        3.7815758337
 C        -8.6711501551       11.3935516770        2.0501671732
 C        -3.8845642119        7.3494698400       -2.1770928806
 C        -5.6398090347        6.9482362931       -3.9081740874
 C        -9.1824938022        3.8180437649       -4.2671223186
 C       -10.1641192200        5.9037737323       -2.8520972093
 C       -13.7719573474        5.4909155729        1.3006373948
 C       -12.3534738747        3.6393337095        2.2837747924
 C       -13.0290296220       -1.5520556688       -1.7734514454
 C       -14.6702230386       -2.6322163820       -0.1198770598
 C        -7.4349107364       -3.5602531965       -0.9908936790
 C        -7.9610761262       -4.0009845049        1.3932100200
 H        -4.9363322011       -0.9541428007        0.3385796667
 H        -6.4049947967       -0.5755797314       -0.5746110700
 H        -5.4819773189       -1.9034764731       -1.0755502546
 H       -10.2211702309       -0.8181324813        0.8608935545
 H        -9.8835896872       -1.8881458989        2.2725958594
 H       -11.6404442478       -3.6409448074        0.9862316600
 H       -11.0381444038       -2.8046175483       -0.3594589410
 H       -15.8170845394       -0.0592080374        1.2398363220
 H       -15.6098379234        1.1522663846        0.0081367703
 H       -13.6962659570        1.5439495451        2.2473610392
 H       -15.3435679199        1.7933978823        2.4707102488
 H       -14.0723022077        4.9206312098       -1.2492068566
 H       -14.0146181238        3.3349044334       -1.2949331011
 H       -12.4836792378        5.1832330548       -3.3343671775
 H       -13.3415446807        3.6973723957       -3.5690647345
 H        -7.5832938579        4.5270527814       -0.1770552545
 H        -8.2407267460        5.9294969289       -1.1571077080
 H        -6.8368508043        4.9139475342       -3.0733150814
 H        -6.3255923642        3.6393115084       -1.9127267744
 H        -5.3971085196        9.2548874259        0.0549770239
 H        -6.2133549669        7.8066194115        0.6798171231
 H        -8.0464721453        9.7555349679       -0.6964524498
 H        -7.0007320080       10.3323948365        0.5762076307
 H       -11.2694700910       10.6268487067        0.7601502559
 H       -12.1451990750        9.1880857590        1.3734862984
 H       -10.7399578427        8.8784730683        0.6854274754
 H        -8.2958749861       10.3572956514        4.6046087990
 H        -7.1611667685        9.4309035806        3.6342705683
 H        -8.6328464288        8.6492995869        4.1228181445
 H        -7.9818155069       11.4879379414        1.1908154755
 H        -8.1674106297       11.9091389305        2.9325432818
 H        -9.4782742795       11.9201631528        1.6633616843
 H        -3.5924809426        8.4198022932       -2.3300892508
 H        -3.1607930013        6.8380494084       -2.7820861619
 H        -3.5358982433        7.3076200169       -1.0959272674
 H        -4.7366139410        6.5581327623       -4.3685419432
 H        -5.8439632302        8.0377931974       -4.1027542473
 H        -6.4590927386        6.2349798343       -4.1580934337
 H        -8.6048560670        2.9425185787       -4.3655150555
 H        -8.5307926295        4.5902962411       -4.5782494958
 H        -9.9845846323        3.6573878763       -4.9731631737
 H        -9.3409999743        6.5154021352       -2.8152038899
 H       -10.9955102640        6.1684896088       -1.9582934372
 H       -10.6798251948        6.1431344633       -3.8230149110
 H       -14.4945467924        5.4361513155        2.1326141986
 H       -14.4262110752        5.7692107155        0.4703426649
 H       -12.9993319125        6.2764091336        1.3471408659
 H       -12.9914427774        3.2820533536        3.0340421389
 H       -11.8424716275        4.5495534061        2.7836603980
 H       -11.5465911940        2.8677522600        2.0117549472
 H       -12.1498160525       -2.2059399737       -1.8100738037
 H       -12.8497862951       -0.6182597915       -2.2609432309
 H       -13.8508569169       -2.0013637236       -2.3339105754
 H       -14.2812197560       -3.5876548219       -0.5095426346
 H       -15.6192958682       -2.3636597318       -0.7300815973
 H       -14.8705564687       -2.5408504312        0.9247041167
 H        -8.2895809999       -4.2151251521       -1.3365530257
 H        -6.4438634181       -4.1719765107       -0.9489283099
 H        -7.0893142997       -2.8982284546       -1.7412333762
 H        -8.6681917793       -4.6729671109        0.8263127876
 H        -8.3477084113       -3.6424703993        2.3359655895
 H        -7.0475131622       -4.3473317283        1.5950385813
 Na      -10.7773799124        1.0783579077       -0.9909414469
