117

 C        -5.5908250295       -1.4964662203        0.3116879309
 C        -6.7404305209       -2.0483963563        1.1727078085
 O        -6.8232531193       -1.9247675462        2.3952566599
 C        -7.8852959071       -2.7388994866        0.2985673565
 C        -8.9317712578       -1.6178684662        0.2138918279
 O        -8.8249342094       -0.8262650119       -0.7119445077
 C       -10.1863212538       -1.4693510600        1.3511067243
 C       -11.3898571509       -2.0738655798        0.6842010031
 C       -12.8242622778       -1.4936834955        1.0469400797
 O       -12.9803829084       -1.1255744512        2.2365491945
 C       -13.8370904629       -1.2344496929       -0.0446543214
 C       -14.0912004994        0.3838371162        0.1286613686
 O       -13.4696202285        1.1198371560       -0.6341488878
 C       -15.1656776863        0.8248445942        1.1515386789
 C       -14.7812042158        2.0849109437        1.9507490934
 C       -14.6014037339        3.1960707395        0.9430936341
 O       -15.4598461467        3.4929183516        0.1575506794
 C       -13.3126417948        4.0381487046        0.9330916796
 C       -12.6166031205        3.8753133987       -0.3890301509
 O       -11.4226666422        3.6620051153       -0.3631847794
 C       -13.3970898378        3.8218173826       -1.6675629765
 C       -12.3966084916        4.1713257286       -2.7476872572
 C       -11.1390520133        3.4004742656       -2.7452103979
 O       -11.1291600492        2.1877065217       -2.6635987796
 C        -9.7065851763        4.0128006636       -2.9806130238
 C        -8.8483136686        3.6824578711       -1.7292582448
 O        -9.1074113702        2.7350368275       -0.9605673776
 C        -7.6954817025        4.6612636595       -1.3802031478
 C        -6.4556902248        4.4027080018       -2.1778462023
 C        -5.3333379593        5.3850169492       -1.5877456579
 O        -4.6828300239        5.1217606931       -0.6256845920
 C        -5.2725124614        6.7440587067       -2.2546095624
 C        -6.4918108000        7.8246984997       -1.6716360656
 O        -7.5170619815        7.8903907455       -2.3076373811
 C        -6.1653457099        8.5038560440       -0.2640087360
 C        -7.0483577895        9.6267687725        0.2064872331
 C        -8.1621844840        9.0726343858        1.1309282616
 O        -8.3398442225        7.8266980442        1.2037485092
 C        -9.0199899246        9.9933794422        2.3616805361
 C       -10.4948346109        9.5438833774        2.1804019965
 O       -11.0177982550        9.2678446063        3.2197847331
 C       -11.2001044684        9.5728612585        0.8514044888
 C        -8.4238298734        9.6544312850        3.7878706158
 C        -8.9502068237       11.4961359499        2.1822378939
 C        -3.9791918899        7.4186286006       -1.8090141980
 C        -5.2337672817        6.7613195392       -3.7713455047
 C        -9.0494101836        3.3018221768       -4.2399210460
 C        -9.6820597343        5.4985171512       -3.3906148738
 C       -13.6797048316        5.5290787945        1.1784504018
 C       -12.3068508188        3.6412784697        2.0456035469
 C       -13.4424377219       -1.5348787577       -1.5527089274
 C       -15.1316861327       -2.1014858945        0.2061646196
 C        -7.5067132604       -3.3266577239       -1.1237315298
 C        -8.4124583722       -3.9673764240        1.1754924831
 H        -4.9034524320       -0.9462943748        0.8164169012
 H        -5.8749209694       -0.9659567505       -0.6594176857
 H        -5.0938314067       -2.4366591291       -0.0175852908
 H       -10.2738718089       -0.3878601372        1.5189770852
 H        -9.8130296202       -2.0298200829        2.2026995619
 H       -11.4472480783       -3.1282409075        0.6097569778
 H       -11.1190598327       -1.8839437532       -0.3693192457
 H       -15.4481053439       -0.0570022739        1.7554410715
 H       -16.0897488804        1.1961573189        0.5608340988
 H       -13.9300100496        1.9733413493        2.6472066298
 H       -15.4744652661        2.3616568968        2.7666816292
 H       -14.1975173721        4.6685976204       -1.5800278235
 H       -14.1444360760        2.9384251983       -1.6693174203
 H       -11.9865792056        5.1834542810       -2.6844763689
 H       -12.9195458696        4.0947945890       -3.6487630423
 H        -7.4507844649        4.5996745908       -0.3343355429
 H        -8.0191212488        5.6966245187       -1.4479797617
 H        -6.4620422663        4.6356701196       -3.2742034508
 H        -6.1287872757        3.3862924687       -2.0677445689
 H        -5.1524106511        8.9232801644       -0.2778927286
 H        -6.2339418442        7.8102672541        0.5151796474
 H        -7.4649266744       10.2319287408       -0.6103256011
 H        -6.5665219194       10.3475954075        0.8900769741
 H       -12.2274521641        9.9541129200        0.9421156470
 H       -11.2462639109        8.5536540210        0.4920032925
 H       -10.6487424174       10.1271843759        0.0372567746
 H        -9.1095113871        9.9803870332        4.5656383431
 H        -7.5626767585       10.3078772791        3.9559277059
 H        -8.2737128634        8.5716906209        3.9035663018
 H        -9.2629072510       11.7220300107        1.1729639566
 H        -8.0452021872       11.9422932756        2.5464671852
 H        -9.7303856542       12.0226914293        2.6995291161
 H        -3.7217179947        8.4161923418       -1.8889905356
 H        -3.1510460879        6.8485159663       -2.1782752291
 H        -3.7766858686        7.1780837598       -0.7314565808
 H        -4.5679424746        5.9612169416       -3.9758235712
 H        -4.6194452236        7.6462476474       -3.9716215718
 H        -6.1357693879        6.7400970778       -4.3290190617
 H        -8.7547379105        2.2123048985       -4.3608507156
 H        -8.0256368671        3.8524897619       -4.2215010682
 H        -9.5825012438        3.6231971001       -5.1632678403
 H        -8.7425360927        5.6374253291       -3.7524160278
 H       -10.1313740621        6.2283434239       -2.5606627734
 H       -10.4382219034        5.7386822872       -4.1257083875
 H       -14.1605657683        5.6233467259        2.1592796265
 H       -14.4162783496        5.7883289587        0.3785652796
 H       -12.9650522816        6.1523236832        0.7577531768
 H       -12.6356052739        3.9196243847        3.0117357294
 H       -11.3810952420        4.2187216112        1.9758774325
 H       -12.1675484667        2.5725689466        2.0278542819
 H       -13.7133651273       -2.5289975186       -1.9933616028
 H       -12.4165571890       -1.3038427869       -1.6615294155
 H       -13.9707721349       -0.7752090084       -2.2136265017
 H       -14.8807675723       -3.0841221307        0.4252996109
 H       -15.8357276445       -2.2023687841       -0.6752720762
 H       -15.6295770141       -1.5135161894        0.9049330550
 H        -8.3447275034       -3.8916335656       -1.4526294428
 H        -6.5552371626       -3.9237871193       -1.1659965127
 H        -7.4943558323       -2.5811928413       -1.9432056905
 H        -9.5466520188       -3.9536162276        1.1011177809
 H        -8.2294019392       -3.6274651011        2.1684574647
 H        -7.8314161797       -4.7966937337        0.9699997465
 Na      -10.4549058123        0.9545746390       -0.8787870841
