117

 C        -5.5101464658       -1.6013237371        0.4990832410
 C        -6.7775631458       -2.0821621566        1.1945673350
 O        -6.9501156970       -1.9573884203        2.3760930625
 C        -8.0334607304       -2.6525473993        0.4050593046
 C        -8.9726695176       -1.5125678835        0.3296202630
 O        -8.8602928520       -0.6599410573       -0.5534343954
 C       -10.1660110015       -1.3192738839        1.1568984803
 C       -11.3598281217       -2.0225222652        0.5677940032
 C       -12.8096681875       -1.4414519849        1.0798723966
 O       -12.9664160455       -1.1443968322        2.2933257296
 C       -13.9453632480       -1.1029682903        0.0300675210
 C       -14.1604388270        0.3887213275        0.1976301348
 O       -13.3712667960        1.0686725565       -0.4113181758
 C       -15.1366833799        0.8563305124        1.2715772206
 C       -14.9387735599        2.1336083682        1.9730474148
 C       -14.7318813703        3.2650472678        1.0789355767
 O       -15.4831782679        3.4321635064        0.1375618155
 C       -13.3379195461        4.0273128959        0.9930525409
 C       -12.6533995158        3.7404905282       -0.4207914872
 O       -11.4024018300        3.6958897170       -0.4397699411
 C       -13.3792769898        3.9100191179       -1.7705641460
 C       -12.3372043406        4.2612952501       -2.8568406903
 C       -11.0801036874        3.3058218944       -2.7305527849
 O       -11.2303446961        2.0811258501       -2.7005567424
 C        -9.5889480324        3.8743883977       -3.0670487617
 C        -8.7722001223        3.7053940992       -1.7721835562
 O        -8.9768418605        2.7684842273       -0.9798253645
 C        -7.5615098570        4.5783375379       -1.2727014499
 C        -6.3373936071        4.4612460968       -2.1115269624
 C        -5.3479832428        5.4503134524       -1.5659054046
 O        -4.5239242019        5.0340506826       -0.7954431081
 C        -5.1794006932        6.8884775346       -2.1597674674
 C        -6.4453582845        7.7547532169       -1.7062486800
 O        -7.5268140647        7.9275031738       -2.2267322713
 C        -6.1270776083        8.5243232540       -0.3123782946
 C        -7.1394244014        9.6658021626        0.2554035776
 C        -8.1670682138        9.0651446029        1.2020797013
 O        -8.4554039596        7.9086586798        1.0627015186
 C        -8.9432042524        9.9252851402        2.2257271423
 C       -10.5641085049        9.4290844949        2.1848524619
 O       -11.2213614893        9.1132692417        3.1304100807
 C       -10.9670467341        9.5815198897        0.7231567464
 C        -8.4138693465        9.6597250881        3.6057478744
 C        -8.8863924884       11.4118472184        1.8976078938
 C        -3.7857640854        7.4383222260       -1.6924642498
 C        -5.0639106154        6.5717849257       -3.6971533878
 C        -9.2144950090        2.8766562277       -4.1522340038
 C        -9.5695074735        5.4367717282       -3.4656703080
 C       -13.6526746520        5.5969500780        0.9741379063
 C       -12.2522737170        3.6815525671        2.0962479200
 C       -13.5915703590       -1.4894089339       -1.3850933098
 C       -15.3644045462       -1.9129078721        0.2212428788
 C        -7.6132656731       -3.0355373779       -1.0520017406
 C        -8.5261068558       -3.9560672893        1.1400270015
 H        -5.0299144403       -0.7799865569        1.0496051805
 H        -5.7806071975       -1.1499135081       -0.3815313218
 H        -4.7696541164       -2.3771816968        0.2672839545
 H       -10.3243626717       -0.2515470831        1.3105559807
 H        -9.8987415963       -1.8405026774        2.0752325135
 H       -11.3170343310       -3.0489881856        0.9916552930
 H       -11.1561785382       -2.2718994825       -0.5833793992
 H       -15.3265685497        0.0314142566        1.9876187512
 H       -16.0603363037        1.0461824540        0.8109398525
 H       -14.0411851827        2.1006167024        2.6490009665
 H       -15.6359068458        2.2733266761        2.7609211798
 H       -14.2596434227        4.6431690392       -1.6793986686
 H       -13.9957355507        2.9791130564       -2.0531950451
 H       -11.9644028170        5.2583152801       -2.9826091954
 H       -12.8657467929        4.0328269706       -3.7070070171
 H        -7.3849935452        4.3726165002       -0.1757707886
 H        -7.6944214823        5.6883038917       -1.2164496120
 H        -6.4961559802        4.7653483620       -3.0768702389
 H        -5.8503745106        3.5098417485       -2.1875493041
 H        -5.1581095932        9.0902917517       -0.3897592736
 H        -6.0678454285        7.8464184351        0.4866513944
 H        -7.7517410569       10.0400830668       -0.6179685609
 H        -6.6954337415       10.5050656591        0.6612068207
 H       -12.1282989513        9.6145438823        0.6201040763
 H       -10.5954749250        8.8219738702        0.1158414096
 H       -10.5657478819       10.5527343137        0.3372473400
 H        -9.3179348709        9.4886350188        4.2826718869
 H        -7.9693955030       10.5989867377        4.0555639653
 H        -7.8478609104        8.7173651490        3.6531487754
 H        -9.6498094303       11.7286374612        1.2597349607
 H        -7.8482650355       11.8136263759        1.6739489723
 H        -9.0504517538       11.9559503217        2.7623058479
 H        -3.3544372258        8.4739371017       -1.7644429795
 H        -3.0957595154        6.8099500022       -2.2066151125
 H        -3.3990045979        7.1659948110       -0.7389972798
 H        -4.6306545410        5.6165430025       -3.7415324531
 H        -4.3646132031        7.1836164823       -4.2481515817
 H        -6.1080432619        6.6626090364       -4.0776989553
 H        -9.3689006887        1.8546357302       -3.8972169684
 H        -8.1363715364        2.8279425291       -4.3257460588
 H        -9.8437373781        3.1151635417       -5.1497489862
 H        -8.5379139816        5.6991914017       -3.6403623533
 H       -10.1090531777        5.9667851663       -2.6505974523
 H       -10.2838623372        5.7642225121       -4.2394223991
 H       -13.9769473536        5.8448690780        1.9725363689
 H       -14.4573554292        5.7658322509        0.2903976718
 H       -12.9850716762        6.2151148043        0.3372446231
 H       -12.3655134691        4.0974945888        3.0512294572
 H       -11.2826873017        4.1699071226        1.7956499866
 H       -12.1975146124        2.5512456214        2.2155101147
 H       -13.8243166853       -2.5423547356       -1.5805814821
 H       -12.5486618892       -1.2150446166       -1.5915519253
 H       -14.2193090938       -0.9705326701       -2.0893849409
 H       -15.2108913142       -2.9947080510        0.0443300427
 H       -16.1976086836       -1.6388540943       -0.4331836595
 H       -15.6497873544       -1.5642877284        1.2035558759
 H        -8.3865352101       -3.3263080346       -1.8700580602
 H        -6.6988041328       -3.6999506210       -1.0444001459
 H        -7.3665016026       -2.1229416359       -1.5064744287
 H        -9.6011710040       -3.8831023337        1.1881644652
 H        -8.2152120163       -3.9648496772        2.1628285704
 H        -8.1759494331       -4.7656055955        0.5570858470
 Na      -10.4567525926        0.9316930931       -0.8881722766
