117

 C        -5.6523313052       -1.9281045629        1.2707521802
 C        -7.1406677075       -1.9991834073        1.6586263387
 O        -7.5790281621       -1.8588646139        2.7858024799
 C        -8.1087610531       -2.3467655989        0.4445548299
 C        -9.3228786845       -1.2877839392        0.5208025761
 O        -9.3304882819       -0.3828160169       -0.3017788544
 C       -10.4574851161       -1.3171576726        1.5089249780
 C       -11.6453564933       -1.7480401198        0.4484943874
 C       -12.9968845538       -1.7563084199        1.2466631418
 O       -13.1498417271       -2.1699287288        2.3204390356
 C       -14.2320929045       -1.0555979454        0.4795128795
 C       -14.0750473523        0.4322582694        1.0010765816
 O       -13.1214041392        1.1300865301        0.7018029784
 C       -15.3358920407        1.1861510419        1.5383889607
 C       -14.9459411348        2.6575883886        2.1331959437
 C       -14.5361709636        3.6134557635        0.8708429645
 O       -15.2764291377        3.6347604913       -0.0937072406
 C       -13.2758555146        4.6686399123        0.7955369697
 C       -12.5159262014        4.1080128787       -0.4771940362
 O       -11.4829449640        3.5081447028       -0.2173926294
 C       -12.9407705733        4.1837192624       -1.8943467927
 C       -11.8071744036        4.3018599951       -2.9226768292
 C       -10.8170140109        3.0714317846       -2.9082150084
 O       -11.2943646083        1.9274661701       -2.9525819205
 C        -9.2412004175        3.3701462968       -3.1448863876
 C        -8.5869558727        3.4440073814       -1.6711289277
 O        -8.8465926777        2.5986805216       -0.8419452946
 C        -7.6247804199        4.6272190633       -1.5247155451
 C        -6.2978571336        4.4697256835       -2.3338732520
 C        -5.0737644062        5.3022779537       -1.7100595195
 O        -4.4853478486        4.7758908553       -0.7859498065
 C        -4.7948640162        6.7813750412       -2.0934185719
 C        -6.0013927276        7.6267368758       -1.4791886442
 O        -7.0779278910        7.4555849146       -2.0212147922
 C        -5.7862299406        8.5129234687       -0.2681884910
 C        -6.8842624401        9.5677756359       -0.0416554239
 C        -8.0542411379        8.8816668077        0.6963204965
 O        -8.1703742569        7.6743875090        0.5635910839
 C        -9.1151799907        9.6546512459        1.5631046473
 C       -10.6251517485        9.1727736799        1.4160293494
 O       -11.2807630070        8.8126048082        2.3733961849
 C       -11.4169701162        9.5768171798        0.1759258850
 C        -8.5769289262        9.4255274894        3.0109980642
 C        -9.0940735430       11.1779868293        1.3642652297
 C        -3.5166549475        7.1062453674       -1.5156255827
 C        -4.7183959956        6.8955581623       -3.5882396595
 C        -8.8128965778        1.9394491657       -3.7749334126
 C        -9.0627602703        4.4585655225       -4.2028968356
 C       -13.8406115643        6.1451290086        0.7608457020
 C       -12.3794229548        4.6180511237        2.0986952635
 C       -14.0652166476       -0.8488669188       -1.0787233420
 C       -15.5272211699       -1.6221238071        0.7454209757
 C        -7.5431836217       -2.1313628226       -0.9618742939
 C        -8.6191131902       -3.8223064170        0.6296944745
 H        -4.9906989656       -1.9166165725        2.0829407438
 H        -5.5566971452       -0.8572796742        0.8810650906
 H        -5.2551658395       -2.6619002958        0.6657136176
 H       -10.8753932848       -0.4787709800        2.0300460561
 H       -10.3974004563       -2.1140318460        2.2338172256
 H       -11.3621809795       -2.8902268394        0.5507252799
 H       -11.6760125038       -1.3202792888       -0.5704981508
 H       -15.8069464797        0.6404440912        2.2941168887
 H       -16.1533094023        1.3327099414        0.8451461236
 H       -14.2333110996        2.4548420751        2.8884303779
 H       -15.8307096046        2.9121635853        2.7582706349
 H       -13.7023220804        4.9635305535       -2.0640040440
 H       -13.4585913435        3.2556937603       -2.2335529208
 H       -11.2661256961        5.1756114302       -2.7895259597
 H       -12.1353263661        4.2846279038       -3.9821551257
 H        -7.4961183216        4.7499306481       -0.4212723905
 H        -8.2607524588        5.4994381117       -1.8727001825
 H        -6.4266073779        4.6872592387       -3.3546163068
 H        -5.9723945391        3.4832675624       -2.3396064031
 H        -4.9778855643        9.1835270928       -0.4341837727
 H        -5.5742955378        7.9667152114        0.7478791822
 H        -7.1977932085       10.0682169429       -0.9232979428
 H        -6.5097432191       10.3608364318        0.6243441675
 H       -11.1989976039        8.8553844916       -0.6032643795
 H       -11.1549695421       10.5107321424       -0.4696361519
 H       -12.4105338149        9.5749841929        0.5537010032
 H        -7.5717583282        8.9323903371        2.9550577438
 H        -9.3368519435        8.8229811862        3.5153933013
 H        -8.5336712073       10.3998658322        3.5879810390
 H        -9.2072708802       11.4619156512        0.3260972914
 H        -8.1814703649       11.5759552054        1.5539524079
 H        -9.8472880315       11.6403752644        2.0564407808
 H        -3.0960623219        8.0859420636       -1.5132770915
 H        -2.6141239486        6.5964785283       -1.9164532343
 H        -3.5274573903        6.9279715679       -0.4298575598
 H        -3.7105298261        6.5594121612       -3.9377200192
 H        -4.8305028564        7.8177362391       -4.0342299889
 H        -5.5457359503        6.3632068628       -3.9513788514
 H        -9.0650217076        1.1285421196       -2.9930495772
 H        -7.6879123648        1.7796262517       -3.9181282038
 H        -9.1451044748        1.6995337037       -4.7274325975
 H        -8.0503157665        4.2287547063       -4.5867547369
 H        -9.0272647879        5.5642251702       -3.8455908018
 H        -9.7642174380        4.2112420906       -5.0163732467
 H       -14.3697319046        6.2270513103        1.7246298148
 H       -14.4580655596        6.5028150533       -0.1298198183
 H       -13.0234994150        6.8776956500        0.8927323860
 H       -12.9295781182        5.1151472776        3.0014972204
 H       -11.3976325236        5.0479085163        1.8882073686
 H       -12.2058828430        3.6153457820        2.5245481383
 H       -14.5887139917       -1.6508167174       -1.5649651074
 H       -12.9950590987       -0.8051645919       -1.3688996581
 H       -14.6232934551        0.0689015251       -1.3825150888
 H       -15.3695594748       -2.7413728302        0.8610047338
 H       -16.1312571998       -1.4246697608       -0.1145251948
 H       -15.9888673404       -1.3397322168        1.7352594065
 H        -8.2574139341       -2.4510358010       -1.7120692206
 H        -6.7018104549       -2.8287447014       -1.1346696977
 H        -7.4004068364       -0.9605615396       -1.1830434604
 H        -8.8337942713       -4.2631667868       -0.3366193519
 H        -9.5019721101       -3.8519433937        1.2691823690
 H        -7.9359449931       -4.5943909449        1.0153718680
 Na      -11.0573741036        1.2809279066       -0.5267859542
