117

 C        -6.3028537490       -2.2260591822        2.4384714531
 C        -7.7198561937       -1.9531619468        2.1280810944
 O        -8.5087465162       -1.6930664282        2.9876469501
 C        -8.1942101336       -2.0926724417        0.6735488297
 C        -9.5363276097       -1.3012137695        0.5303309996
 O        -9.6610339425       -0.3198949481       -0.2175398496
 C       -10.8984747519       -1.9075765076        1.1537858692
 C       -12.0266919435       -1.6871623940        0.1136132812
 C       -13.3519463792       -1.7788435985        1.0001557002
 O       -13.4167417530       -2.6160950163        1.8089148023
 C       -14.5703899239       -0.6684759415        0.9430302140
 C       -13.9207263300        0.7380997077        1.4347481339
 O       -12.7944614589        1.0486791594        1.1507913935
 C       -14.8635816901        1.7479253551        1.9898693870
 C       -14.2901101992        3.2273984805        2.1111277101
 C       -14.3720682442        4.0599455747        0.7917790421
 O       -14.8039554240        3.4887481801       -0.1951205368
 C       -13.4515128796        5.3926482745        0.6160103940
 C       -12.3156651264        4.7908989005       -0.2337460742
 O       -11.4986107584        4.1718257560        0.4485783230
 C       -12.4455561164        4.6413676271       -1.7294462559
 C       -11.0583005800        4.4632271837       -2.3873258101
 C       -10.7036095057        2.8826915574       -2.6175500444
 O       -11.6019373910        2.0758816439       -2.6106377254
 C        -9.3430952021        2.6437220369       -3.0644335377
 C        -8.4227664190        3.2303079092       -1.8366329523
 O        -8.3572177386        2.4988675683       -0.9039775988
 C        -7.6222112541        4.5278954661       -1.9687470850
 C        -6.2486370265        4.4534202008       -2.6209498500
 C        -5.1615572250        5.0222102650       -1.6011073018
 O        -4.6714209355        4.3898760258       -0.6455253033
 C        -4.4389883276        6.4542372523       -1.9247993766
 C        -5.7028168392        7.4008535051       -1.6197088182
 O        -6.5220132252        7.6372737049       -2.4523791161
 C        -5.8790493586        7.9977076542       -0.2164398522
 C        -6.7403784946        9.2322457574       -0.2157628375
 C        -8.1197584567        8.7505728580        0.1365960440
 O        -8.3856587049        7.6184272897       -0.1277204780
 C        -9.1880967017        9.5153685678        0.9557571936
 C       -10.5498525924        8.8387397373        0.5850894950
 O       -11.0484807812        8.0247224671        1.3745974063
 C       -11.0035342031        9.0181554940       -0.8694058215
 C        -8.9242686538        9.1029497215        2.4860279162
 C        -9.2874743545       11.0197455458        0.7191813259
 C        -3.1629286095        6.8816511165       -1.2013371826
 C        -4.1919971119        6.6439026029       -3.4159201273
 C        -8.9854575252        1.1876280915       -3.2977697978
 C        -8.8036980448        3.4591178660       -4.2889184538
 C       -14.3514574940        6.4488125707       -0.1738652543
 C       -13.1591096668        5.9206847789        2.0836011888
 C       -14.9688225280       -0.4379998097       -0.5314121959
 C       -15.6798902594       -1.2627203647        1.8868495247
 C        -7.1273666635       -1.4530556338       -0.3246242352
 C        -8.2796388877       -3.5308331887        0.3634168584
 H        -6.1463671760       -2.3844675022        3.5562850324
 H        -5.6227855640       -1.4948166902        2.0555683770
 H        -5.9150516207       -3.1538995039        1.9932897873
 H       -11.0629543132       -1.1981283360        1.9751887772
 H       -10.7665632478       -2.9404702558        1.5659661112
 H       -12.2993289351       -2.4535062480       -0.5592772220
 H       -11.7286917411       -0.7813894459       -0.3959700102
 H       -15.2232780523        1.2980518830        2.9478350062
 H       -15.7340408566        1.8533115959        1.4133852868
 H       -13.2537661193        2.8578945442        2.2416386910
 H       -14.7577847098        3.6904485960        2.9417252363
 H       -12.8284154871        5.4006531044       -2.3714686027
 H       -12.8994453856        3.6959485575       -1.9444482866
 H       -10.3177913279        5.0134424483       -1.7006509998
 H       -11.0031622113        4.9385323637       -3.4005189681
 H        -7.4789028595        4.7676699234       -0.8991470597
 H        -8.2799355368        5.2808375671       -2.3948677966
 H        -6.2524456805        4.9702876108       -3.5650406798
 H        -5.8303724199        3.3884076472       -2.6789732515
 H        -4.7963843638        8.3391409058        0.0401779408
 H        -6.0225481082        7.2509807244        0.5042898939
 H        -6.7997042384        9.6052065479       -1.2856768742
 H        -6.4637857237        9.9576885768        0.4965406859
 H       -10.7313691145        9.9466019339       -1.4038037259
 H       -12.1153643294        8.9659075325       -0.8784507445
 H       -10.6778565949        8.1618010883       -1.3785996546
 H        -9.7993181785        8.6017792621        2.9738449730
 H        -8.9568484389       10.1411273876        2.9239173758
 H        -7.9926390577        8.5272022156        2.5810006570
 H        -9.5378629188       11.2188064097       -0.3055214070
 H        -8.3010656605       11.4736036497        0.9578905347
 H       -10.0670523529       11.5329434901        1.2919593021
 H        -2.9184978271        7.9419892864       -1.5851426215
 H        -2.2120043484        6.3957751405       -1.4284366674
 H        -3.1380706671        7.0085387270       -0.1517435592
 H        -3.4563241030        6.0497316071       -3.8850010538
 H        -4.1820068828        7.7126344554       -3.5843970798
 H        -5.0410798705        6.2246143858       -4.0069428378
 H        -8.9460633518        0.7390207500       -2.3125582092
 H        -8.0337349218        1.0279353474       -3.6984381593
 H        -9.6859830083        0.6225286691       -3.7457253482
 H        -7.8259687547        2.9905877395       -4.6101591468
 H        -8.5382425326        4.4905754653       -4.1026296923
 H        -9.3535971272        3.1914813780       -5.1665859584
 H       -15.2165061559        6.7320979772        0.3887108630
 H       -14.7628444474        6.0738383153       -1.0656415006
 H       -13.6592439389        7.3469666683       -0.2006108589
 H       -14.1180411125        6.2317886023        2.6356612896
 H       -12.5079091203        6.7841943044        2.0240586923
 H       -12.5163380585        5.2372333281        2.6858195794
 H       -14.2647323985       -0.9573024542       -1.1608147644
 H       -15.1568280209        0.5723207951       -0.8495657938
 H       -15.9524129099       -0.7481295923       -0.5318487170
 H       -15.7750588327       -2.3778234360        2.0490266025
 H       -16.5773418803       -0.9353008805        1.5005941617
 H       -15.6160719980       -0.9153640585        2.9730314720
 H        -7.3662745709       -1.9246556809       -1.3013969218
 H        -6.2013266376       -1.6283542471        0.0322268579
 H        -7.1319764840       -0.3408016939       -0.3170888161
 H        -8.8860429543       -3.8122829135       -0.5256408114
 H        -8.7148925987       -4.2369144371        1.1304607074
 H        -7.2019028705       -4.0403898810        0.3520084763
 Na      -10.8107414000        1.6840337124       -0.1184445103
