117

 C        -6.9828205022       -2.2583211346        3.1094494541
 C        -8.3288665530       -2.0171945170        2.4071915357
 O        -9.3316219957       -1.5855224785        3.0244722859
 C        -8.2953617823       -1.9464308588        0.8560829137
 C        -9.7030578728       -1.2732301048        0.4272721039
 O        -9.6965821019       -0.0454316775        0.2661715917
 C       -10.9929654555       -2.2577536029        0.3660232705
 C       -12.3121051682       -1.4839272949       -0.1007544141
 C       -13.3990896936       -1.6091140900        1.0719669930
 O       -13.5370266381       -2.6042559858        1.7313205230
 C       -14.4712575410       -0.4608335413        1.1566986208
 C       -13.7511092529        0.8898240444        1.5424680254
 O       -12.6417847112        1.0379343212        1.1034455635
 C       -14.4951244111        1.8702407449        2.3558602393
 C       -14.0812817695        3.4104522217        2.2388182670
 C       -14.4635361500        3.9126491474        0.8353216484
 O       -15.3240373282        3.3509761902        0.1698572522
 C       -13.7360598004        5.2716325330        0.4330547496
 C       -12.4036087989        4.7567781499       -0.2561769514
 O       -11.5116104837        4.3072594216        0.4491480250
 C       -12.2431963017        5.0591649618       -1.8172177299
 C       -10.8880304594        4.6824515991       -2.5253298482
 C       -10.6458842264        3.1931062358       -2.4312402605
 O       -11.4533802743        2.5754960750       -1.8114175051
 C        -9.2466572422        2.6375602382       -3.0138222239
 C        -8.3224149945        2.9519718552       -1.6523681138
 O        -8.4990504049        2.3584901266       -0.5965214783
 C        -7.3339410582        4.1522800668       -1.6774156765
 C        -6.0875063530        4.2837151811       -2.5832834435
 C        -5.0307904715        4.9472461768       -1.7066566670
 O        -4.7104373320        4.3618279646       -0.6376019205
 C        -4.1905382792        6.3133285072       -2.0182401237
 C        -5.2043179543        7.4663230742       -1.8225650505
 O        -5.8834986755        7.8923576492       -2.7650953672
 C        -5.3998661643        7.9656987570       -0.3626733201
 C        -6.5728040945        8.8787930876       -0.1435090576
 C        -8.0320864348        8.2741610725       -0.2021159888
 O        -8.2687024702        7.3292294361       -0.9399288692
 C        -9.2006889137        9.0696665445        0.5246637073
 C       -10.6193645464        8.7033988772        0.0518611239
 O       -11.4858822766        8.4038666815        0.8279050510
 C       -10.9374139497        8.9436756482       -1.4946309043
 C        -9.0378806844        9.0384280138        2.0794097918
 C        -9.1424644811       10.5115941318       -0.1099416374
 C        -2.9168608768        6.5093556035       -1.0908505541
 C        -3.6870222676        6.3746356743       -3.5444445521
 C        -9.3007704112        0.9374157564       -2.8577156177
 C        -8.7706727138        3.3774592646       -4.2720847684
 C       -14.6571860245        6.0767250038       -0.4772946838
 C       -13.3551454332        5.9996502198        1.7056162830
 C       -15.2914607825       -0.3390107696       -0.2089690582
 C       -15.4914484562       -0.8466791017        2.2950415513
 C        -7.0183730713       -1.1100120651        0.4097525071
 C        -8.2559529296       -3.3985924562        0.1866395396
 H        -7.2104722710       -2.6055318656        4.0844969481
 H        -6.3988028012       -1.2741749557        3.3025287582
 H        -6.2296549218       -2.8423527260        2.6113225420
 H       -11.0775992519       -2.4932347379        1.4176707553
 H       -10.8662080247       -3.1662238223       -0.2626002978
 H       -12.7148830083       -2.2123678792       -0.9020989091
 H       -12.4267513061       -0.5238811798       -0.5527260423
 H       -14.2510797095        1.7321422265        3.4016999039
 H       -15.5116062289        1.8621136335        2.3657041133
 H       -12.9876834283        3.3686774292        2.3468599722
 H       -14.6120066621        3.7571682804        3.0806179120
 H       -12.3248803794        6.0583140678       -2.0629440237
 H       -12.9617756509        4.5958994879       -2.3836730745
 H       -10.0688483189        5.2375910128       -2.0296335916
 H       -10.7694575821        4.9258754114       -3.5936339581
 H        -6.9186450603        3.9921868303       -0.6397184107
 H        -7.9822933704        5.0571949907       -1.6119028456
 H        -6.1817220353        4.8511061626       -3.4578665708
 H        -5.7554238626        3.2572597243       -2.6492490721
 H        -4.4452426205        8.4902227526        0.0568464992
 H        -5.2921763752        7.1332509612        0.3075653703
 H        -6.7535774980        9.6327724621       -0.9415677035
 H        -6.4011484488        9.2812953425        0.7915992690
 H       -11.4684644036        9.9058778868       -1.6167638839
 H       -11.5725356724        8.0384128065       -1.8092856124
 H       -10.1301452728        9.0982074713       -2.1148844158
 H        -8.0082147258        8.8198343672        2.3296414673
 H        -9.7530398373        8.2762941412        2.3882944437
 H        -9.3456925603        9.9841753676        2.4863003999
 H        -8.9550722521       10.4207884333       -1.1343434583
 H        -8.3218980821       10.9556223530        0.3700299706
 H       -10.0110712284       11.1859802564        0.0026885795
 H        -2.6060656434        7.5583063182       -1.2308044877
 H        -2.0718788900        5.8567929663       -1.1095373520
 H        -3.1078840446        6.5294990571       -0.0679129610
 H        -3.1230631855        5.4947740890       -3.8628197622
 H        -3.1538403903        7.2694310153       -3.7249854852
 H        -4.5581136835        6.3176960391       -4.2278935739
 H        -9.4691967154        0.7672583128       -1.7828107182
 H        -8.2930347891        0.4753435261       -3.0905309527
 H       -10.0514365575        0.3374595695       -3.2744442924
 H        -7.8013650784        3.0119319829       -4.6153934676
 H        -8.6971841094        4.5423062696       -4.0613469094
 H        -9.5185377627        3.3179499566       -4.9729516613
 H       -15.4739187603        6.3755408866        0.1387664011
 H       -14.9650169773        5.3694771122       -1.2217656049
 H       -14.1383414760        6.9728123531       -0.9010767147
 H       -14.1604497978        5.8708023106        2.5517271152
 H       -13.4780526428        7.0527711800        1.6350520893
 H       -12.3828480259        5.6468584436        2.0578607341
 H       -15.0761103372        0.5855575721       -0.7765753116
 H       -16.4070757052       -0.5200267173       -0.0091181121
 H       -14.9465859697       -1.1736586750       -0.8317960396
 H       -16.2830763741       -1.5913727864        2.0547096806
 H       -16.0461052867       -0.0753680844        2.7586318051
 H       -14.8843350045       -1.0963767379        3.2166815093
 H        -7.1706551677       -0.9973748120       -0.6323688782
 H        -6.1037025772       -1.6157338605        0.6803988157
 H        -7.0323191712       -0.0267309366        0.9142997981
 H        -8.5782382857       -3.4855902995       -0.8866027762
 H        -8.8847611466       -4.2308078768        0.4891974693
 H        -7.2187200039       -3.7563791401        0.0418215369
 Na      -10.6750132695        2.0621634853        0.4275475633
