117

 C        -7.2529518619       -2.3012522049        3.3460543986
 C        -8.4524680334       -1.9433662657        2.3920847201
 O        -9.5083937552       -1.7006791956        2.8826026148
 C        -8.3383266062       -1.9049830542        0.7934705777
 C        -9.7678230877       -1.3199942604        0.4216978599
 O        -9.9504190168       -0.1079364363        0.4911487207
 C       -10.9230348714       -2.2854371038        0.3074577936
 C       -12.2533348938       -1.6006029197       -0.1299818513
 C       -13.3905095007       -1.6210905226        0.9684558247
 O       -13.4790732202       -2.6178420443        1.7507341031
 C       -14.4077599049       -0.4503152324        1.2168968480
 C       -13.7707477971        0.9192480343        1.5695397458
 O       -12.6978641235        1.1838211566        1.0547839307
 C       -14.4368389540        1.8987963902        2.5986696315
 C       -14.0156219857        3.4596240888        2.3243493125
 C       -14.4927347020        3.8473834897        0.9081775170
 O       -15.3853983105        3.3321089604        0.2997801560
 C       -13.7841661935        5.1545610468        0.2879350382
 C       -12.4110083961        4.7663652307       -0.3634857750
 O       -11.4406262706        4.3155000770        0.3397325334
 C       -12.1939612231        5.2183716797       -1.7768386907
 C       -10.9717089757        4.8206973417       -2.4882822483
 C       -10.6585796354        3.2822704209       -2.3074904349
 O       -11.3615148611        2.5065878828       -1.6850346942
 C        -9.3082879534        2.7290881434       -2.7724767600
 C        -8.3235508437        2.9651034217       -1.6465318074
 O        -8.6630378393        2.5014510909       -0.5746164019
 C        -7.2157758524        4.0924201270       -1.5947506295
 C        -6.0551590024        4.3477233195       -2.6292590427
 C        -4.7674091473        4.8881061260       -1.6330657543
 O        -4.6398799557        4.3810087439       -0.5565068891
 C        -4.0897830403        6.2355523727       -2.0899968614
 C        -5.1647600694        7.3795224033       -1.8059790082
 O        -5.6023635824        7.9286194859       -2.7949317259
 C        -5.4682458750        7.9198607128       -0.3521860983
 C        -6.6064793869        8.9435049521       -0.1877954312
 C        -7.9942912623        8.2597983358       -0.3604970613
 O        -8.1978728578        7.2691142642       -1.0550066038
 C        -9.1402610969        8.9725511471        0.3134316643
 C       -10.7121544006        8.5917079927       -0.1871358783
 O       -11.5796826401        8.4991110313        0.6260527569
 C       -11.0022461407        8.8206944817       -1.6299648851
 C        -9.0363487134        9.0304430720        1.8565083495
 C        -8.9018903562       10.4326197256       -0.1738145534
 C        -2.8437316548        6.3598587289       -1.1869558819
 C        -3.7595285232        6.1644587922       -3.5967287266
 C        -9.3841092982        1.1445671841       -2.9535699189
 C        -8.7336204064        3.3683050839       -4.0083892966
 C       -14.6223705652        6.0129184148       -0.6505219178
 C       -13.3976448204        6.1344258978        1.4824599307
 C       -15.2463716279       -0.1507006283       -0.1130356642
 C       -15.4013536501       -1.0206027978        2.3837307850
 C        -7.1847284688       -0.9886794017        0.5721887101
 C        -8.1910469242       -3.3367748483        0.2504031641
 H        -7.6975146866       -2.5593010086        4.2823863772
 H        -6.7094765504       -1.3178323229        3.5988424640
 H        -6.3669357978       -2.8740131296        3.0103509784
 H       -10.9281901714       -3.0045046638        1.1905094154
 H       -10.6284725232       -2.7719273592       -0.6394120878
 H       -12.4852757148       -1.9727033768       -1.0860668729
 H       -12.2665835662       -0.5824694611       -0.2455004031
 H       -14.2390546534        1.8030890191        3.6579461052
 H       -15.5687949648        1.9356718572        2.5914726119
 H       -12.9647394426        3.5198846844        2.4659769838
 H       -14.6160361110        3.9559045687        3.1142998367
 H       -12.1891773162        6.3291150376       -1.9133094711
 H       -13.0050008933        4.9384411768       -2.5634765258
 H       -10.0625993975        5.3263241744       -2.1261474311
 H       -11.0141626437        5.0994316499       -3.6215947541
 H        -6.9736853069        4.0963432774       -0.5500498295
 H        -7.8913662064        4.9475040845       -1.7701359877
 H        -6.3895343545        5.2862227477       -3.1916774917
 H        -5.8650734544        3.4170660892       -3.2051298150
 H        -4.5491671986        8.1879334633        0.1022021149
 H        -5.6462326724        7.0472256185        0.3388586553
 H        -6.7564871548        9.7446027243       -0.9079996479
 H        -6.5271842380        9.2842526528        0.8493621604
 H       -11.5314434967        9.7332856830       -1.6990636384
 H       -11.5209771071        7.9790577261       -2.0508843729
 H       -10.0856943506        9.1274651871       -2.2011734400
 H        -8.0110191361        9.4528673323        2.0627270654
 H        -9.2053661724        8.0186646994        2.2305505723
 H        -9.8825747369        9.6587508087        2.2841810366
 H        -8.2914705952       10.3491179579       -1.0685793155
 H        -8.4833607733       11.0506576995        0.5551068832
 H        -9.7953482304       10.9145485574       -0.6027441158
 H        -2.4065085545        7.3130520659       -1.2530081588
 H        -2.0693101126        5.5819122339       -1.2258527243
 H        -3.1105529330        6.3803095818       -0.0861640739
 H        -3.5175017322        5.1624121060       -4.0925225160
 H        -2.8414016830        6.7709901552       -3.6300846629
 H        -4.5167908579        6.6430923606       -4.2224539806
 H        -9.7001501866        0.7275880260       -2.0908725194
 H        -8.4477366681        0.7909273407       -3.1579056495
 H       -10.1313319438        0.8032056602       -3.6725935943
 H        -8.2196769605        2.5987067678       -4.5115055848
 H        -8.1430263902        4.2686282272       -3.9508347755
 H        -9.6991370500        3.7035489129       -4.5736338135
 H       -15.4441114762        6.3603238636       -0.0211694460
 H       -14.8543704632        5.4030935159       -1.5770045329
 H       -14.0254821096        6.8231643289       -0.9271985338
 H       -14.2185124607        6.5198764823        2.0800032769
 H       -13.1339666526        7.1255099362        1.0134681395
 H       -12.5739835440        5.7201874928        2.1050083666
 H       -15.1161147062        0.8361129174       -0.5260499352
 H       -16.3158778721       -0.3930489445       -0.0098416135
 H       -14.7340621121       -0.8043584102       -0.8525842287
 H       -15.8753867685       -1.9398231031        2.1026550898
 H       -16.2847841302       -0.3634386661        2.6918321180
 H       -14.9512373665       -0.9760767154        3.3348937314
 H        -6.9665283952       -0.9145340120       -0.4511643867
 H        -6.3016525511       -1.5322076533        1.0953473547
 H        -7.3628550334       -0.0334042697        0.9926360593
 H        -8.5219164687       -3.5153095712       -0.8689007664
 H        -9.0047765262       -4.0626225444        0.6057302642
 H        -7.2184993344       -3.8021037563        0.1844887872
 Na      -10.6585954705        2.0262666526        0.6926949955
