117

 C        -7.6750790695       -2.3971699750        3.5311048765
 C        -8.8452611676       -2.0610696088        2.5876195081
 O        -9.9990756317       -1.9433134800        3.0256386234
 C        -8.5908575857       -1.9214401722        1.0460832138
 C        -9.8866933435       -1.3561578911        0.5349630744
 O       -10.0977481946       -0.1543026671        0.7039476666
 C       -11.0594083971       -2.2619340449       -0.0373737637
 C       -12.2784256966       -1.4425610966       -0.1967055048
 C       -13.3127041636       -1.6266915207        1.0111888802
 O       -13.1847783089       -2.5538028459        1.7001009167
 C       -14.3369936311       -0.4796551166        1.3710311259
 C       -13.6730646748        0.9437781434        1.7204211996
 O       -12.7683379425        1.3394464039        0.9991820106
 C       -14.3506163083        1.9140778687        2.6242915005
 C       -13.8800964414        3.3494064755        2.3978321532
 C       -14.4022989666        3.8653958430        1.0065634633
 O       -15.3592865146        3.3616590225        0.4357588705
 C       -13.8313175502        5.1951569612        0.3130618915
 C       -12.4691459436        4.7721986114       -0.3799633421
 O       -11.5847482889        4.3716122453        0.2902782920
 C       -12.3150330896        5.1731823348       -1.8852802683
 C       -10.8590057579        4.8530928321       -2.4756063925
 C       -10.6029791791        3.3646962493       -2.2338757731
 O       -11.3285854557        2.6057387036       -1.6613432679
 C        -9.2571225539        2.8002420023       -2.6805343300
 C        -8.2218330359        3.1204165528       -1.3366345163
 O        -8.6132923033        2.6515375567       -0.2969658053
 C        -7.1806415141        4.2311455360       -1.1709609275
 C        -6.1549863901        4.2695193014       -2.2126734764
 C        -4.9125021273        4.7703651517       -1.5563124155
 O        -4.4150060638        4.3119738190       -0.4996223105
 C        -3.9587629411        6.0781016271       -2.1860824402
 C        -4.9031149962        7.3496333077       -1.8515159802
 O        -5.2983369595        8.0967087382       -2.7462723075
 C        -5.4669901179        7.5255751929       -0.4219761448
 C        -6.4582531715        8.6325931318       -0.3856998934
 C        -7.9315040236        8.2168469358       -0.6611903756
 O        -8.3158508543        7.1866235793       -1.1803274418
 C        -9.0601910979        9.1554649420       -0.1199302683
 C       -10.4901673934        8.7679365818       -0.5782381511
 O       -11.3824681981        8.5757351434        0.2601607444
 C       -10.8093268090        8.7421301429       -2.1343022147
 C        -9.0518670896        8.8436355079        1.4292888470
 C        -8.9699752165       10.6713447987       -0.3433482518
 C        -2.6689657203        6.1933024064       -1.3193080315
 C        -3.7408402256        5.8592294205       -3.7088479703
 C        -9.4494375906        1.3062286202       -3.0822275414
 C        -8.8297048466        3.5474315008       -3.9891963571
 C       -14.9295830759        5.5378115140       -0.6714398456
 C       -13.5197149649        6.3236150010        1.3528850404
 C       -15.1024000544       -0.0975835005        0.0529239532
 C       -15.3543278634       -0.9703903017        2.4752424216
 C        -7.4992856560       -0.7446905619        0.5856065701
 C        -8.0022236349       -3.1785961816        0.4897227178
 H        -8.1191137022       -2.7695142884        4.4453248900
 H        -7.0307250254       -1.5829863853        3.8492972480
 H        -6.9776311283       -3.0329292516        3.0420086490
 H       -11.2971095451       -2.9979638957        0.6963780678
 H       -10.7123329434       -2.7117082602       -0.9761493313
 H       -12.9651264193       -1.7026179305       -1.0727474359
 H       -12.1743940992       -0.3523095810       -0.4837634433
 H       -14.0949049877        1.6189777409        3.6937928699
 H       -15.4119276441        1.8522347497        2.6188755240
 H       -12.7505078047        3.2025520630        2.4847175930
 H       -14.2514116646        4.0613670619        3.1384922537
 H       -12.5280233708        6.2392780174       -2.0126712851
 H       -12.9712087064        4.7842579419       -2.6079320557
 H        -9.9575025910        5.2569088680       -1.9596521543
 H       -10.7309458074        5.0919155094       -3.4788206622
 H        -6.8340645018        3.9470243335       -0.1733989487
 H        -7.6797941291        5.1892614635       -1.0924234479
 H        -6.4175070489        4.8733979749       -3.0396736045
 H        -5.8626279848        3.2307275124       -2.4223823879
 H        -4.5786151347        7.6788460987        0.2965507591
 H        -5.7727970620        6.5738792386       -0.0921401208
 H        -6.2593230963        9.4559402382       -1.1093422943
 H        -6.5045590346        8.9968377173        0.6498221008
 H       -11.4309939592        9.6257323378       -2.4152352313
 H       -11.3090996814        7.7433564036       -2.3203598453
 H       -10.0157863280        8.8829663886       -2.7810015130
 H        -8.7195480807        9.7117188341        1.9860038143
 H        -8.3561682075        7.9788364756        1.5983712817
 H       -10.0059375598        8.4106379112        1.7111953500
 H        -8.9283375073       10.9328364654       -1.4087443493
 H        -8.0978965491       11.0628137040        0.2630148460
 H        -9.9114237820       11.1184270012        0.0380606025
 H        -2.0802233659        7.1276457358       -1.6411959334
 H        -2.0247257279        5.3609477352       -1.6076643099
 H        -2.5860525720        6.2742016702       -0.2755271199
 H        -4.0085966864        4.8496448356       -4.0259709457
 H        -2.6801983766        5.8511489033       -3.9837816449
 H        -4.3385430682        6.6169625851       -4.3350016757
 H        -9.9825365365        0.7239849675       -2.2658344238
 H        -8.4547218394        0.7580886705       -3.3191974246
 H       -10.1380896440        1.2635220974       -3.8880698390
 H        -7.8731438252        3.0458616287       -4.2656828602
 H        -8.5494700887        4.6444964550       -3.7798271380
 H        -9.5077365488        3.5600982879       -4.7114865152
 H       -15.8287922807        5.6966786869       -0.1076806397
 H       -14.8492679409        4.7516597931       -1.3528818680
 H       -14.5778816467        6.4407695343       -1.2819418113
 H       -14.3414611450        7.0619845295        1.3202943467
 H       -12.7678627239        6.9616652083        1.0243714650
 H       -13.3258717677        5.9562621065        2.3303092970
 H       -15.5192699001        0.9286800940        0.1317604749
 H       -16.0310568071       -0.6587397720       -0.0065737950
 H       -14.4713419013       -0.0639736047       -0.8019059073
 H       -15.5856762427       -1.9918160596        2.1998639269
 H       -16.2470805143       -0.4865393319        2.4832141551
 H       -15.1204944984       -0.7330098195        3.5163066976
 H        -7.2710336689       -0.9225162949       -0.4888552976
 H        -6.5812195924       -0.9288457011        1.0255005407
 H        -8.0126484305        0.2958267973        0.6636576771
 H        -7.6485694222       -3.1776027527       -0.4702357567
 H        -8.5970306971       -4.0267381174        0.5138129327
 H        -7.0681296210       -3.3962319425        1.0037310203
 Na      -10.6159529823        2.1246086276        0.8689721609
