117

 C        -8.2884581389       -2.5273686343        3.9251441490
 C        -9.4847124586       -2.3461290919        2.9680174490
 O       -10.6427510381       -2.4094728410        3.3995174397
 C        -9.0468924448       -1.7474935962        1.4533254120
 C       -10.1619514595       -1.0076391918        0.7527958365
 O       -10.2654707400        0.2712123249        0.7373973830
 C       -11.1725408147       -1.9484179963       -0.1261394329
 C       -12.5384292444       -1.4475785572       -0.3447138768
 C       -13.1686038434       -1.3806212647        1.0674589534
 O       -12.7368283274       -2.1635891756        1.9363638044
 C       -14.3799414244       -0.4376336084        1.4196924246
 C       -13.5534314557        0.9345863913        1.6785898329
 O       -12.8359402505        1.2830869722        0.7390869662
 C       -13.7931878876        1.8541980763        2.8625838914
 C       -13.7719162150        3.3952926926        2.5022767903
 C       -14.4640288324        3.6821832982        1.1326400257
 O       -15.3270262355        2.9545555290        0.7118622033
 C       -14.2483896956        5.1453091179        0.4341244994
 C       -12.8083509604        4.9312978606       -0.1613213914
 O       -11.8910819905        4.7033335635        0.5752308387
 C       -12.5586873244        4.9978897151       -1.7012417763
 C       -11.1200714672        4.6869822152       -2.1124287214
 C       -10.5871080637        3.3021693826       -2.0510072864
 O       -11.2136646504        2.2869804218       -1.9847358096
 C        -8.9986714443        3.1434286130       -2.4838960541
 C        -8.1016721030        3.1256859788       -0.9403186307
 O        -8.5086730176        2.5592888183        0.0556539047
 C        -6.9855976034        4.1606348849       -0.7939459811
 C        -5.8945981564        3.9910856770       -1.7417461149
 C        -4.5319926147        4.5814167468       -1.3539161207
 O        -3.9080549459        4.2541862465       -0.3564694072
 C        -3.8554028043        5.6897619959       -2.2068713730
 C        -4.5919231294        7.0853756337       -2.1437033959
 O        -4.3674850768        8.0012981881       -2.8968216534
 C        -5.4482083002        7.4145809671       -0.8174118884
 C        -6.3886369365        8.6035977501       -0.9115671368
 C        -7.8360946981        8.1767236318       -0.9649406659
 O        -8.2643029521        7.2099355793       -1.5978325872
 C        -8.9110650111        9.2480734273       -0.4298463138
 C       -10.1553998652        8.9593597872       -1.4635668422
 O       -11.1168330188        8.4391333687       -1.0108385285
 C        -9.9893193872        9.3237013200       -3.0132916283
 C        -9.4895260672        8.9803664844        0.9800499689
 C        -8.4199412207       10.6301996228       -0.7410010126
 C        -2.3830811384        5.9385369351       -1.7555180051
 C        -3.7870296411        5.1538711405       -3.6668699699
 C        -8.8470923118        1.6474518701       -2.8726571621
 C        -8.7222902935        4.1055012102       -3.5967950137
 C       -15.5270403276        5.3356713296       -0.5721108598
 C       -14.2601970323        6.2419597966        1.4983882443
 C       -15.3886831326       -0.1307166447        0.2637027040
 C       -15.1581091537       -0.8931643113        2.6478929488
 C        -7.8840873583       -0.7743529978        1.5575588478
 C        -8.5570908588       -2.9614772034        0.6018413974
 H        -8.6131756920       -2.9225231583        4.8324485243
 H        -7.6842646158       -1.5824739556        4.2419150238
 H        -7.5326193007       -3.1945962844        3.5060262101
 H       -11.2386327595       -2.9101919269        0.3288983199
 H       -10.7684199220       -1.9761411860       -1.1775312218
 H       -13.0707336606       -2.3133866760       -0.9090091586
 H       -12.7360030256       -0.5777226724       -0.9462387204
 H       -13.0136170620        1.7418570652        3.7297806181
 H       -14.7089672646        1.6484408123        3.4295434856
 H       -12.7126350022        3.8103552661        2.4718659306
 H       -14.1851627764        3.9764654138        3.3076516992
 H       -12.9093521165        5.8669220967       -2.3052583472
 H       -13.2844063573        4.2423003958       -2.1415884289
 H       -10.4202727624        5.4991551514       -1.6993199728
 H       -11.0175898764        4.7016706890       -3.1850577970
 H        -6.6182107050        4.1871992588        0.2457376813
 H        -7.6160796416        5.0340701511       -0.9142430539
 H        -6.1460844987        4.3785969966       -2.7361861705
 H        -5.7321664675        2.8518285855       -1.9152547595
 H        -4.5986479643        7.5840769983       -0.0481132404
 H        -5.8730142415        6.4751760063       -0.5928203969
 H        -6.2092462467        9.2299589711       -1.8285830172
 H        -6.3309679746        9.2348628860       -0.0040141348
 H       -10.7706781712       10.0502705771       -3.2677010127
 H       -10.3287821107        8.3736914179       -3.5032563209
 H        -9.0643524113        9.6273641642       -3.4050913746
 H        -9.2093676062        9.7682004909        1.7327179330
 H        -9.0924807918        8.0210094726        1.4559862128
 H       -10.6001975760        8.8830447659        0.8873360307
 H        -9.3021071208       11.2798588475       -0.7332492495
 H        -7.9411271696       10.7638834764       -1.6988833860
 H        -7.8100412881       11.0493267614        0.1410433710
 H        -1.7907861074        6.7654796862       -2.2628141591
 H        -1.6815276357        5.0779703071       -1.7520117564
 H        -2.4943575554        6.2821096774       -0.7293710015
 H        -4.8939273436        5.0699096329       -3.8379092972
 H        -3.5889672401        4.1183048051       -3.8791775661
 H        -3.3279722917        5.9427777494       -4.3582152301
 H        -9.4489825871        1.0630491867       -2.2620988447
 H        -7.8614005184        1.2110789223       -2.8438270464
 H        -9.1025730601        1.5067140515       -3.9175225402
 H        -7.9263201757        3.7256211424       -4.1919023529
 H        -8.4272296857        5.1153149019       -3.1614504792
 H        -9.5621048859        4.1858573713       -4.2812355389
 H       -16.3604655240        5.3362900932        0.1046127106
 H       -15.5375758598        4.4180480271       -1.1685953385
 H       -15.3095983873        6.2153723447       -1.2693185868
 H       -14.8869563383        5.9164846493        2.4236681350
 H       -14.5972751288        7.1792930993        1.0776705802
 H       -13.2588844509        6.3661292181        1.8918769388
 H       -15.8919827705       -1.0075743644       -0.0882134579
 H       -14.9820733389        0.1439438348       -0.7111790872
 H       -15.9947725693        0.6076467201        0.6789471047
 H       -15.5589046750       -1.9248599882        2.5550201107
 H       -15.9576846761       -0.2230220028        2.8877222842
 H       -14.5688438015       -0.9284488810        3.6162361066
 H        -7.9580534433       -0.2382364857        0.6548944924
 H        -6.9066580567       -1.3048132759        1.5559302793
 H        -8.1617639296       -0.0646312416        2.3759623109
 H        -8.3738924712       -2.6343092741       -0.4413895692
 H        -9.1568428163       -3.8656631247        0.6279882623
 H        -7.6215496646       -3.4447909467        0.8642237400
 Na      -10.8369355872        2.4622296230        0.2733767843
