117

 C        -8.7503362948       -2.7757103494        4.1733372029
 C        -9.6975374231       -2.3966477365        3.0528320282
 O       -10.9310031423       -2.5266546812        3.2448554872
 C        -9.0360667702       -1.8059046974        1.7146082077
 C       -10.1072381626       -1.0306596078        0.8952733599
 O       -10.4560517286        0.1449390343        1.0613489794
 C       -11.0374513048       -1.9000652851       -0.0848848542
 C       -12.4500707517       -1.2697635541       -0.1681966791
 C       -13.3166676853       -1.2962802874        1.1758671655
 O       -13.1170508146       -2.1388758028        2.0267955950
 C       -14.5757797557       -0.2623065978        1.4672515628
 C       -13.9779163881        1.1101677169        1.6572730517
 O       -13.2467519359        1.5997199188        0.7512500247
 C       -13.8555185303        1.7951703917        3.0152289040
 C       -13.8062495629        3.2986600640        2.6640875209
 C       -14.6367275417        3.5763681211        1.3287025428
 O       -15.5358834975        2.8661823060        0.9749023146
 C       -14.3816502326        4.9444629583        0.5374123909
 C       -12.9361182204        4.7314973257       -0.0083157408
 O       -11.9299958613        4.6334597205        0.7051141359
 C       -12.7789484301        4.6945467029       -1.5355000585
 C       -11.3633894891        4.7965646227       -1.9533487874
 C       -10.5546688629        3.4749779313       -2.1732927309
 O       -11.1752838669        2.4391982528       -2.0895342373
 C        -8.9191719951        3.4075162393       -2.3989725958
 C        -8.2923295674        3.4742604082       -0.9561869355
 O        -8.8649163518        3.1365774134        0.0030828147
 C        -6.7830565699        4.0053465637       -0.7987039759
 C        -5.5772194374        3.4393027470       -1.4968757899
 C        -4.4056836649        4.5731016046       -1.1697135400
 O        -3.9238924538        4.4807816721       -0.0475551184
 C        -3.5951065173        5.5142204799       -2.2710715683
 C        -4.3670676567        6.9157072966       -2.1789460143
 O        -4.2318605150        7.6244792906       -3.1671856922
 C        -5.1284879432        7.4808811234       -0.8218831128
 C        -6.0760545685        8.6652129076       -1.1861818665
 C        -7.5240313875        8.2189530762       -1.2741615744
 O        -7.7399571288        7.0417247257       -1.2775196453
 C        -8.7644560305        9.2181145301       -1.1886418320
 C        -9.7837266755        9.0709956934       -2.2420166020
 O       -10.7871724133        8.3819471398       -2.1092686777
 C        -9.7664500917        9.9526349110       -3.6641161333
 C        -9.3587181438        8.7182979185        0.1991337105
 C        -8.4303876131       10.7427091869       -1.1882350050
 C        -2.1329913981        5.6447491710       -1.8016964388
 C        -3.7257416032        5.0426684143       -3.8117597206
 C        -8.5503964672        2.1202425846       -3.0688133919
 C        -8.5093454504        4.6068830164       -3.4037657093
 C       -15.4171485115        5.2172194449       -0.6272737960
 C       -14.2703066184        6.0902158165        1.5923045337
 C       -15.6110351859       -0.5444532045        0.4252305913
 C       -15.1685024725       -0.5375830389        2.8799914378
 C        -7.9926793779       -0.7071348193        2.0845212894
 C        -8.4962450955       -3.0397614265        1.0685836237
 H        -8.9554740589       -3.7674831519        4.5011528978
 H        -8.8512815323       -2.1027301337        5.1085886888
 H        -7.6641955798       -2.8651200086        3.9420839003
 H       -11.0201420296       -3.0050699632        0.1272849549
 H       -10.6193781352       -1.6935791228       -1.0818389206
 H       -12.9910410034       -1.8549142151       -0.8168949721
 H       -12.4473552233       -0.3314088237       -0.5679816787
 H       -12.7745996177        1.7130068045        3.3232917948
 H       -14.3951144404        1.5634028276        3.8925773626
 H       -12.7646345631        3.5571086864        2.5868222796
 H       -14.0610959374        3.9710389078        3.4653171083
 H       -13.5019958426        5.2068711037       -2.2907551429
 H       -12.9706633517        3.6223941265       -1.9567825226
 H       -10.6586937418        5.4200138917       -1.2834088166
 H       -11.3730548560        5.1924283736       -2.9462863056
 H        -6.5845615611        3.9918619756        0.2814728490
 H        -6.8361987061        5.0758748433       -1.0200012122
 H        -5.5975799491        3.2564895922       -2.5610831570
 H        -5.1130898990        2.4648996069       -1.1378707978
 H        -4.2802898752        7.9616369296       -0.3127157067
 H        -5.5944220649        6.7254581779       -0.3001907657
 H        -6.0137057190        9.1981582663       -2.1149969079
 H        -5.8934021328        9.4713805090       -0.3862755104
 H       -10.6386070277       10.6376396950       -3.5017194439
 H       -10.1492036743        9.3133016096       -4.4895066108
 H        -8.9010367523       10.4205175080       -3.9345566180
 H        -8.6326415185        8.2571369131        0.8066175247
 H        -9.9778939162        7.8737298819       -0.0651439207
 H        -9.8649558752        9.4288642166        0.7838806613
 H        -8.5241582488       11.1989276000       -0.2641880501
 H        -9.0904026168       11.2702338395       -1.8525099545
 H        -7.4026633594       10.8765833640       -1.4887168300
 H        -1.6229136922        6.4103839674       -2.4542451230
 H        -1.5604130955        4.8202369594       -2.1191579591
 H        -1.9314588721        5.8640129481       -0.8078302700
 H        -4.2972067317        5.6915005580       -4.4170592692
 H        -4.2497126974        4.1284646498       -3.8223385616
 H        -2.7150488258        4.9212808944       -4.1570755942
 H        -8.5022360857        1.3410534480       -2.2795060032
 H        -7.5796861596        2.0298520589       -3.6629056666
 H        -9.2422874124        1.8203556037       -3.8184186749
 H        -7.5013980179        4.6147312851       -3.7333414914
 H        -8.7559727838        5.5836165106       -2.9287234119
 H        -9.0392909377        4.4895989205       -4.2940816980
 H       -16.3343794057        5.1135860329       -0.1334097990
 H       -15.3418376164        4.3621172162       -1.1776008844
 H       -15.1550790717        6.1784160645       -1.1529448218
 H       -15.2942443884        6.3365722435        1.9997833574
 H       -13.7348121202        6.8112200868        1.0735396669
 H       -13.6332589737        5.8805327407        2.4385504086
 H       -15.0683734706       -0.9605150518       -0.5031788573
 H       -16.1553494428        0.3295459410        0.0101282120
 H       -16.4015975943       -1.2388732544        0.7823073462
 H       -15.5731857289       -1.5389572118        3.0951220772
 H       -15.9320653343        0.1785913491        3.0878280315
 H       -14.3391728490       -0.6992191863        3.6308776357
 H        -7.2971662272       -0.7267165331        1.2890405425
 H        -7.5982497759       -0.8944025042        3.0549023003
 H        -8.5532774116        0.2358261714        2.0777441183
 H        -8.0535228468       -2.9053328213        0.0445799023
 H        -9.2528084930       -3.8790779362        0.9191502428
 H        -7.8173809332       -3.5347303661        1.8248955033
 Na      -11.1903294256        2.2261539967        0.5648333321
