117

 C        -8.8646936600       -2.8483208886        4.3117416732
 C        -9.8417353926       -2.3664628445        3.1358247264
 O       -10.9835510732       -2.5208057332        3.2200945911
 C        -9.0840802833       -1.8221225293        1.8855362611
 C       -10.1854091722       -1.1144770774        1.0837216181
 O       -10.3305068644        0.0977013181        1.2854958580
 C       -11.2205086485       -1.9086298247        0.0459816229
 C       -12.5115189339       -1.2152595446       -0.1789716031
 C       -13.3728711862       -1.3551822663        1.2421798305
 O       -13.1771571408       -2.3344369282        1.9312695327
 C       -14.6060571217       -0.3520565834        1.6110014004
 C       -13.9225307148        1.0614917707        1.6142547261
 O       -13.3541772284        1.4424672273        0.5762987454
 C       -13.8471760703        1.9088037095        2.8958828599
 C       -13.9599595877        3.4258056112        2.7238982397
 C       -14.7812517364        3.7432032557        1.5542281644
 O       -15.6721909408        2.9776955785        1.1771394568
 C       -14.3331372653        4.9525130204        0.5814654245
 C       -12.8765404325        4.6489175988       -0.0223066220
 O       -12.0061451809        4.5149184193        0.7895334215
 C       -12.6490689302        4.5997073509       -1.5528916033
 C       -11.2532417621        4.8309751058       -2.0508214940
 C       -10.4761671578        3.5332179515       -2.1232454638
 O       -10.9213557476        2.4199742656       -2.0600452072
 C        -8.9422929664        3.6742280602       -2.3905053948
 C        -8.2149438395        3.6220215962       -0.9521329402
 O        -8.9281940686        3.3304020680        0.0229787466
 C        -6.7806821476        4.0337176442       -0.7410022629
 C        -5.5262931036        3.5086918432       -1.4383646817
 C        -4.2639437156        4.3823748862       -1.1410051308
 O        -3.9850302618        4.6784656582       -0.0112244915
 C        -3.7532530013        5.3224935184       -2.2594953166
 C        -4.4203947077        6.9369448882       -2.1526633860
 O        -4.3146278974        7.5722791895       -3.1504165136
 C        -4.9714944846        7.4843634544       -0.9147763426
 C        -5.8642980093        8.6673670478       -1.3781342172
 C        -7.3671669894        8.2258789147       -1.3519815535
 O        -7.6115011642        7.0086686288       -1.3488886585
 C        -8.5904341280        9.2058291251       -1.3155567138
 C        -9.7120238105        9.0648102143       -2.5721198626
 O       -10.5990329907        8.2873969161       -2.4610427166
 C        -9.6440299071        9.9712900355       -3.7554068025
 C        -9.4622732161        8.6945291561       -0.0357712987
 C        -8.2308458500       10.7388421795       -1.2764007354
 C        -2.3519674573        5.6257419573       -1.8022047138
 C        -3.7451154345        4.8607038734       -3.6526990777
 C        -8.5484463980        2.3064239253       -3.1804040088
 C        -8.7373199470        4.7362482321       -3.3673408439
 C       -15.4209116929        5.1665628451       -0.4547845081
 C       -14.2505193072        6.2191414264        1.4778825650
 C       -15.6387008090       -0.6065746421        0.4699860590
 C       -15.3782171641       -0.6644037416        2.9286902976
 C        -7.9622381669       -0.7460177465        2.1749019240
 C        -8.3311712805       -2.9655927645        1.0707824160
 H        -9.0042531030       -3.8929247942        4.5097746263
 H        -8.9595699001       -2.2829462874        5.3200463942
 H        -7.7692606627       -2.9197200106        4.1231937728
 H       -11.4218406086       -2.8945327039        0.4008866302
 H       -10.6626972502       -1.9480605305       -0.9451300156
 H       -13.1301813676       -1.8696817617       -0.8136958039
 H       -12.4684122650       -0.2576536429       -0.5958105734
 H       -13.0852093948        1.6298441197        3.7351653258
 H       -14.8626847018        1.7667556126        3.3367625325
 H       -13.0131029192        3.9978003169        2.7139258684
 H       -14.4047418343        3.8793334456        3.5707518967
 H       -13.3722457731        5.2831063440       -2.1195079899
 H       -13.0375579232        3.5701569753       -2.0789092852
 H       -10.5852152959        5.4126593396       -1.3214296066
 H       -11.2540113931        5.3201191702       -3.0446744237
 H        -6.5868151771        4.0105168504        0.3335265554
 H        -6.8615744650        5.1070957092       -0.9412104099
 H        -5.5632874777        3.3378715870       -2.5568666706
 H        -5.1857332704        2.4508113609       -1.1026242863
 H        -4.2440932516        7.7257156719       -0.1493669601
 H        -5.6038557623        6.6631576123       -0.7498447169
 H        -5.6708545411        9.0809530131       -2.4393916807
 H        -5.6797417075        9.5192914103       -0.7295930756
 H       -10.2330563511       10.8121153590       -3.5503311100
 H       -10.0286295439        9.5507740833       -4.6771450775
 H        -8.5399592240       10.1981016756       -3.8240714530
 H        -9.0012697547        7.9714515220        0.6241774215
 H       -10.1566748490        8.0558486585       -0.5506155114
 H        -9.9139890412        9.3957339298        0.6297555896
 H        -7.7673523122       11.0472805881       -0.3476926819
 H        -9.0745153732       11.2951661338       -1.4105752503
 H        -7.4936535211       10.9454977223       -2.0778845188
 H        -1.7622182313        6.2513294363       -2.4325712081
 H        -1.8387398635        4.6882055540       -2.0415587575
 H        -2.1610483917        5.8318394246       -0.7436821738
 H        -4.0790002695        5.6904757971       -4.3403954148
 H        -4.3031477339        3.9723181518       -3.8391096695
 H        -2.6934592704        4.6383610108       -3.8117303914
 H        -8.7504558260        1.6333787208       -2.4377031998
 H        -7.6519750462        2.1156268516       -3.6316230358
 H        -9.2550010268        2.0669889341       -3.9980461929
 H        -7.8192612370        4.5871754243       -3.8026720567
 H        -8.7323864211        5.6768782538       -2.9006697291
 H        -9.4426304503        4.7001522460       -4.2998795817
 H       -16.2884908230        5.1906643938        0.1586597311
 H       -15.5280999235        4.1890261148       -1.0162788467
 H       -15.1910352145        6.0881141651       -0.9640207718
 H       -15.3187402654        6.4454067773        1.7163709534
 H       -13.6619132396        6.9601854903        0.9299115012
 H       -13.7303504598        6.0980543095        2.4246503062
 H       -15.1365923298       -0.4809824637       -0.5192148332
 H       -16.5331142742        0.0998935175        0.4888148207
 H       -16.0753766444       -1.6248709571        0.5113840370
 H       -15.8482317342       -1.6652033600        2.9052467901
 H       -16.2331825083        0.0169795025        3.0816204428
 H       -14.7354609411       -0.9341595012        3.7486283118
 H        -7.2652099169       -0.9856451503        1.4581239201
 H        -7.6866268923       -1.0223874708        3.2712710583
 H        -8.2593927980        0.2638049473        2.1291661314
 H        -7.9625624826       -2.6535234232       -0.0044099925
 H        -8.8865277353       -3.9591459329        0.8518179361
 H        -7.5264361785       -3.2931268044        1.7485854491
 Na      -11.1352172498        2.2722025660        0.5051646629
