117

 C        -9.0264908117       -2.9608471304        4.4369287211
 C        -9.7501815789       -2.4878901451        3.2360964209
 O       -10.9601636173       -2.4694062334        3.2308125841
 C        -9.0274788388       -1.8195938838        1.9910012280
 C       -10.2875541819       -1.0682485609        1.1543288398
 O       -10.3870348543        0.1210442158        1.3484331982
 C       -11.2354116954       -1.8417255643        0.2926977287
 C       -12.6442210260       -1.2759991482        0.0821858932
 C       -13.5186775538       -1.5361463178        1.2620876534
 O       -13.3075662653       -2.4924174514        1.9132199638
 C       -14.5249218378       -0.4313658296        1.6362498714
 C       -13.9839604781        1.0188850177        1.5467463805
 O       -13.4495365495        1.3480790614        0.5132774410
 C       -13.9983129031        1.8590460346        2.8949051175
 C       -14.0151397034        3.4094695815        2.8037102832
 C       -14.8103891313        3.8236905235        1.5831729337
 O       -15.8414091119        3.2304653704        1.3387958851
 C       -14.3941234632        5.0143209670        0.6200954424
 C       -12.9229944908        4.6406742603        0.0184890811
 O       -11.9771512079        4.3340482757        0.7581117102
 C       -12.7478145153        4.5197295078       -1.4194755910
 C       -11.2288563318        4.8196596266       -1.9716950568
 C       -10.3829937789        3.5192002888       -2.0354872244
 O       -10.9319260781        2.4368125706       -1.8825822819
 C        -8.9071173383        3.7179388515       -2.4375887766
 C        -8.1438765228        3.7330566302       -1.0295199246
 O        -8.9050780880        3.4655651845       -0.0311014860
 C        -6.7846242460        4.2132168295       -0.6442944467
 C        -5.6665242106        3.5245861915       -1.3953661915
 C        -4.5327773161        4.5519069309       -1.0310355365
 O        -4.1301389222        4.6445663758        0.0942443926
 C        -3.6991611337        5.3291228870       -2.2889509052
 C        -4.3935020492        6.7410846413       -2.3250487029
 O        -4.3162826575        7.3903157668       -3.2915511070
 C        -4.9770847261        7.5130066307       -0.9511869221
 C        -5.9049504866        8.6907217818       -1.3697405227
 C        -7.3621211263        8.2434020095       -1.5361418060
 O        -7.5579399007        7.0309873903       -1.4863410619
 C        -8.6320436150        9.1550022846       -1.5152524024
 C        -9.5114724959        8.9681889363       -2.7911524036
 O       -10.3655832349        8.1244780591       -2.8051966741
 C        -9.3536384453       10.0164549139       -3.8649518910
 C        -9.4408051263        8.8716346797       -0.2542948453
 C        -8.0189678104       10.5720337616       -1.2290219537
 C        -2.2116753574        5.7027252187       -1.7547538968
 C        -3.8470310811        4.6774119812       -3.6660453359
 C        -8.4514346620        2.3446104272       -3.2394227698
 C        -8.6662474322        5.0573146867       -3.3357696472
 C       -15.5161686828        5.1319047651       -0.4604689092
 C       -14.1904378619        6.3858302958        1.3651406217
 C       -15.5988872150       -0.4336540116        0.4221532644
 C       -15.3414550396       -0.8753723090        2.8891206903
 C        -7.9431549302       -0.7921102006        2.3534311397
 C        -8.3580251083       -2.9211910284        1.0835860716
 H        -9.0786228516       -4.0379726931        4.8185539989
 H        -9.2201118848       -2.2899376162        5.1733823115
 H        -7.9539433495       -2.9666402187        4.2932791948
 H       -11.2921517210       -2.7556639510        0.8785624315
 H       -10.6991237768       -2.0853095246       -0.6341203479
 H       -13.1959070184       -1.5775025365       -0.8810154950
 H       -12.4982038880       -0.0936793178        0.0622645866
 H       -13.1292482987        1.4359845083        3.4203053401
 H       -14.9487496772        1.6245006223        3.4983818112
 H       -12.9882454819        3.8013367721        2.7602456404
 H       -14.4029118410        4.0444947862        3.6263023514
 H       -13.3130460465        5.3368947349       -1.8037211371
 H       -13.3353716644        3.7158673923       -1.8568347360
 H       -10.7599684863        5.5634151099       -1.3880916960
 H       -11.2960515707        5.2000994202       -3.0486948635
 H        -6.6568966330        4.0706651927        0.4274933234
 H        -6.7362414269        5.3143112150       -0.7643984811
 H        -5.8102410155        3.4117712719       -2.5223462570
 H        -5.3669531874        2.5403434280       -1.0731877873
 H        -4.0504992664        8.0375804829       -0.7823690842
 H        -5.3450090222        6.7926717602       -0.1296042281
 H        -5.3093508550        9.0438576893       -2.2763752796
 H        -5.7622447687        9.4771619144       -0.6741352547
 H        -9.7716673085       10.9436517957       -3.5208073300
 H        -9.9294600498        9.7263591936       -4.7237406384
 H        -8.2551140213       10.0660627409       -4.1397764926
 H        -8.8921934813        8.3944485130        0.5915913845
 H       -10.2318014886        8.1678469108       -0.4751368661
 H        -9.8188519376        9.8078168762        0.2411471856
 H        -7.1196281086       10.4496898821       -0.5965738129
 H        -8.6867266310       11.2508480541       -0.6347969445
 H        -7.7158804315       11.0777704724       -2.1200572383
 H        -1.6001649276        6.2178221272       -2.4492573667
 H        -1.6255569640        4.7397111161       -1.7049072385
 H        -2.1533901525        6.1454158626       -0.7136568638
 H        -3.9086155437        5.5077659415       -4.4378106041
 H        -4.7286659248        3.9305296982       -3.7538937925
 H        -2.9382971639        4.0632726435       -3.7894766577
 H        -8.8303490162        1.4680124333       -2.7206056873
 H        -7.4083903368        2.2519380179       -3.3733976659
 H        -8.7793492893        2.3047700064       -4.2524039031
 H        -7.5926834994        5.0920925833       -3.7876183741
 H        -8.6821842054        5.8534997219       -2.6251418507
 H        -9.3411052940        5.1949901702       -4.1777143574
 H       -16.4458550095        5.3779454020        0.1284507119
 H       -15.7043225207        4.1428478295       -0.9795843979
 H       -15.1859032949        5.9961238511       -0.9654465427
 H       -15.1315774431        6.5815585621        1.7643624421
 H       -13.7427246560        7.1777679294        0.6780909285
 H       -13.4708552300        6.2771423863        2.2064331751
 H       -15.3941771933        0.2240509680       -0.3936182439
 H       -16.5952744723       -0.2645701679        0.8311952352
 H       -15.6484738473       -1.4581237446       -0.0543144015
 H       -15.7226412142       -1.8881369653        2.7393489545
 H       -16.3059785780       -0.2950591472        2.9702043773
 H       -14.7510431563       -1.0827952263        3.7320079200
 H        -7.1683979444       -0.7893229984        1.5137470837
 H        -7.6946557311       -1.1297786174        3.3247000089
 H        -8.3788063972        0.1861796459        2.5190535835
 H        -8.0945070576       -2.5943510284        0.0829284766
 H        -8.9888884756       -3.7865379936        0.8808244949
 H        -7.4768503391       -3.3268431937        1.6409468928
 Na      -11.0182193315        2.2841085952        0.3792821551
