117

 C       -12.7326236138       -0.7847355557       -9.1057328770
 C       -11.6946788829       -1.2688344379       -8.1226375600
 O       -11.6418793513       -2.3564508646       -7.6117433245
 C       -10.7399105130       -0.2677492584       -7.5036935859
 C       -11.0353609396       -0.0621979675       -5.9383705477
 O       -11.5681608751        0.9708730674       -5.5882870457
 C       -10.4834976862       -1.0757175893       -4.9839671129
 C       -10.8416552077       -0.6584426905       -3.5048771685
 C       -10.1777616246       -1.3884439418       -2.4324087883
 O        -9.5446990711       -2.4333328378       -2.5736230837
 C        -9.9597980740       -0.4598051613       -1.0487555802
 C       -11.1718859692        0.5291347191       -0.8901146807
 O       -11.2568382396        1.6038702288       -1.4803028016
 C       -12.0355068309        0.2556743928        0.3078327741
 C       -13.1832904336        1.2497660495        0.5339171117
 C       -12.5799001671        2.6270236215        1.1000157741
 O       -11.7292301432        2.6147324094        1.9471280436
 C       -13.3256165375        3.9788757975        0.4216510531
 C       -13.0862431942        5.2858062958        1.1866847242
 O       -12.1814560250        5.5241127404        1.9562118189
 C       -14.1271500702        6.4691759312        1.0037789513
 C       -13.6329053143        7.5259924000        2.0375185144
 C       -12.1366604648        8.1137408877        1.6960129334
 O       -12.0144274854        8.5926311648        0.6006745923
 C       -11.0562271675        8.4267594272        2.8830771565
 C        -9.6909370147        7.7542247659        2.4148021822
 O        -9.4518574855        6.6067994217        2.6526319712
 C        -8.8897311147        8.4650578853        1.2878276158
 C        -7.5028226134        7.8836437955        1.1633329876
 C        -6.7849164362        8.2058337962        2.4172147882
 O        -7.1973020054        8.8558466481        3.3762758953
 C        -5.2935980150        7.5995035647        2.4278063548
 C        -5.4373004084        6.0874055907        2.7702986062
 O        -5.5840015434        5.2565327896        1.9016342984
 C        -5.4380411228        5.6804526114        4.2497230017
 C        -5.7788108715        4.1833047812        4.3698274308
 C        -6.9645092527        3.6850790710        3.5421908231
 O        -8.0847919102        3.9465387639        4.0184035239
 C        -6.8698155690        2.6504694066        2.4383987804
 C        -7.4731127050        3.2358717115        1.0912413856
 O        -8.5804902917        3.7651645895        1.0194238887
 C        -6.7890057026        3.0342149259       -0.2226080662
 C        -5.4719514145        2.0143823220        2.2996388752
 C        -7.8450951165        1.4648504619        2.6608553911
 C        -4.6939735589        7.7629155916        1.0649123477
 C        -4.5558281812        8.3386469543        3.5273618801
 C       -10.8577485295       10.0376823424        2.9866863953
 C       -11.4205410910        7.9285443588        4.2316519554
 C       -12.7745605877        4.0380192939       -0.9893120042
 C       -14.8882567654        3.7145534102        0.3446519090
 C        -9.6033883915       -1.3993819767        0.0858207438
 C        -8.7342379094        0.3692801607       -1.4022680924
 C        -9.3158652052       -0.7479119808       -7.6581251960
 C       -10.8801216686        1.1232808869       -8.1737500202
 H       -13.0716627393       -1.6429449470       -9.7141856396
 H       -12.2980061552        0.0099471773       -9.7271671300
 H       -13.6771559417       -0.3976858858       -8.5267516971
 H        -9.3963991484       -1.2169986225       -5.1044100726
 H       -10.8850051491       -2.1170830196       -5.1644861618
 H       -11.8810631371       -0.8984333142       -3.3929034129
 H       -10.5765062915        0.4058596185       -3.2500100266
 H       -11.3476869633        0.2573742507        1.2109030046
 H       -12.4329988888       -0.7320915532        0.0725740116
 H       -13.8443882105        0.8096667443        1.3198827509
 H       -13.6179285161        1.4560157346       -0.4559679146
 H       -15.1750124754        6.3063101977        1.1102030717
 H       -13.9432385186        6.7639435482       -0.0420310336
 H       -13.7955320244        7.1723566653        3.0519350609
 H       -14.2419709130        8.4312831706        1.9573376365
 H        -8.8952275359        9.5859964949        1.4667411084
 H        -9.5162169127        8.2450614902        0.3848159765
 H        -6.9571011186        8.1599306579        0.2521985527
 H        -7.4924575269        6.7512531462        1.1602943717
 H        -6.2292497597        6.2715027830        4.6659686046
 H        -4.5231346721        5.9112616217        4.8204073814
 H        -6.0144388933        4.1125303272        5.4145495547
 H        -4.9357837798        3.5410199279        4.2103025983
 H        -6.2057665517        2.1592314308       -0.3336709096
 H        -5.9823257012        3.7802574420       -0.3694161750
 H        -7.3793401737        2.9575219432       -1.1555905354
 H        -5.2797196124        1.1557729379        3.0180954661
 H        -4.8127634007        2.7849465484        2.3897765516
 H        -5.2218781712        1.6120186301        1.2964146119
 H        -8.8904501597        1.7614998092        2.7150529293
 H        -7.6695377397        0.9528289094        3.6570962674
 H        -7.7254036365        0.7643584701        1.9397073557
 H        -4.6635617902        8.7209024740        0.5942588859
 H        -4.9700171678        6.9911042795        0.3652137860
 H        -3.5875269878        7.4871040897        1.2711348478
 H        -3.7659201699        7.7510423758        3.9961695125
 H        -5.2479972038        8.6433067553        4.3639745134
 H        -4.0538154634        9.2286842546        3.1589824082
 H       -11.7283315765       10.5044760730        3.4522067214
 H       -10.6335609684       10.5872328210        2.1355524697
 H        -9.9936180063       10.1258107342        3.6735530635
 H       -11.5520067846        6.8788740298        4.3008045419
 H       -12.4289970627        8.3731598857        4.5305130823
 H       -10.6137305291        8.1150440783        4.9539869165
 H       -11.7526337744        3.6680151429       -1.1313010643
 H       -12.8136456293        5.0744187834       -1.3666144478
 H       -13.4449410917        3.3936830217       -1.5692686204
 H       -15.0456611876        2.8330573358       -0.2495164735
 H       -15.2062627675        4.6486518270       -0.1102791059
 H       -15.2878248283        3.6418411116        1.3137658888
 H        -8.7592141457       -2.0354368586       -0.2653149212
 H       -10.4583695002       -2.0681381407        0.3529248252
 H        -9.1632757321       -0.8553396991        0.9851155256
 H        -9.0785113498        1.3754649446       -1.7270949695
 H        -8.1347968372       -0.1714811331       -2.1598626651
 H        -8.0352625416        0.5761998518       -0.5835454554
 H        -9.0283231590       -1.6075391890       -6.9847481739
 H        -8.6360215760       -0.0670288261       -7.2809570882
 H        -9.0864334388       -1.2042669344       -8.5940494994
 H       -11.9428782775        1.3819853664       -8.0016150272
 H       -10.6010751104        0.9804309199       -9.2132145486
 H       -10.2038484558        1.8017715813       -7.7209589094
 Na      -10.1577475843        4.5033759323        2.6986201880
