117

 C        -9.0414351752       -3.0572655967        4.4969163673
 C        -9.7338535554       -2.4378612698        3.3008503951
 O       -11.0199976943       -2.4796107985        3.2936591146
 C        -9.0346443001       -1.7447137527        2.0137719260
 C       -10.2565683877       -1.0118458106        1.2895452649
 O       -10.4202489927        0.1767741733        1.3587048664
 C       -11.0649775516       -1.9603902594        0.4826046621
 C       -12.4132606564       -1.3365606832        0.1871252913
 C       -13.4906519317       -1.6185862871        1.3671722267
 O       -13.6437550116       -2.6608218833        1.9665184282
 C       -14.7290626464       -0.4916676802        1.5323183610
 C       -13.9835600870        0.9039330101        1.6652852597
 O       -13.5420196182        1.5462215903        0.7242198581
 C       -14.1079400051        1.7072715427        2.9476419575
 C       -13.9509868683        3.2201066640        2.7575089672
 C       -14.9247260674        3.9153537775        1.6256644051
 O       -16.0423303848        3.5180572939        1.4666271135
 C       -14.3531334992        5.0663816715        0.6356573717
 C       -13.0180041702        4.5653929236        0.0400788984
 O       -12.1195482539        4.2379642585        0.8493601492
 C       -12.8978929163        4.5684135398       -1.5196707563
 C       -11.3352348733        4.8925195697       -1.8883717220
 C       -10.4648885290        3.5445011934       -2.1758327912
 O       -10.8247743598        2.4515485617       -1.7505127878
 C        -8.9165497430        3.7099234782       -2.4055832743
 C        -8.3499737253        3.7912854360       -1.0014454051
 O        -8.9881718182        3.4614363978       -0.0328523674
 C        -6.9058128929        4.4253158786       -0.6559178334
 C        -5.6839195669        3.7048474478       -1.3942243693
 C        -4.3884196783        4.4676597582       -1.0646429396
 O        -4.2467632504        4.6694651548        0.1399403025
 C        -3.7247508281        5.3040366578       -2.1188554314
 C        -4.3237702676        6.8084094760       -2.3954310153
 O        -4.4108401039        7.2037438015       -3.5579896141
 C        -4.8308637763        7.5697256228       -1.2139733216
 C        -5.8818895868        8.6604873414       -1.3876521276
 C        -7.3004681335        8.0651038277       -1.5068373626
 O        -7.6019024378        6.9201966303       -1.6727753897
 C        -8.4982684146        9.2121388772       -1.4856457048
 C        -9.3263796055        9.0287323905       -2.9217856037
 O        -9.9524648604        7.9795959407       -3.1200836622
 C        -9.0337857996       10.0723837415       -4.0854986124
 C        -9.4295140706        8.8709072194       -0.3688127629
 C        -7.9457263025       10.7552604809       -1.3461769186
 C        -2.3261986304        5.6166626363       -1.7919434272
 C        -3.7845426261        4.6011717281       -3.4723218219
 C        -8.3718742340        2.5741154375       -3.2238979293
 C        -8.5355352360        5.0020391650       -3.1947654414
 C       -15.4313243991        5.1578941236       -0.4859021853
 C       -14.0984441319        6.4405247167        1.2935493513
 C       -15.6823442910       -0.3238752701        0.2932853722
 C       -15.2840858638       -0.9888531997        2.8747838511
 C        -7.9598967127       -0.8011952353        2.5408127310
 C        -8.5195755435       -2.8861672052        1.1092389844
 H        -9.3706566061       -4.0553884131        4.6910229822
 H        -9.2320847642       -2.4192582974        5.3354290136
 H        -8.0184840308       -3.3155464715        4.4560070324
 H       -11.1616649402       -2.9350417779        1.0515467498
 H       -10.4258942774       -2.1896291607       -0.3446413322
 H       -12.9714851268       -1.7957779985       -0.7083552593
 H       -12.2307585712       -0.2405484634       -0.0244263800
 H       -13.2911857609        1.2978136042        3.4863913393
 H       -15.0050389508        1.5682019187        3.5207995238
 H       -12.8977084877        3.4105947462        2.5556170509
 H       -14.0827932895        3.9070547437        3.6593022606
 H       -13.5166136139        5.1769315043       -2.0993443001
 H       -13.1965619449        3.6682068584       -1.8156294741
 H       -10.9037075032        5.4562452988       -1.1042897084
 H       -11.2666140217        5.4385280761       -2.8152593450
 H        -6.8939838629        4.2642056328        0.4338965293
 H        -6.8510426171        5.5214582785       -0.7242207942
 H        -5.8512172314        3.6515617011       -2.4387329599
 H        -5.5633837273        2.7201750062       -1.0401358594
 H        -3.8486890181        7.9455800211       -0.7895237834
 H        -5.3432690570        6.7111000016       -0.6460242450
 H        -5.5190141530        9.3467201321       -2.1072080674
 H        -5.9454112374        9.2727886835       -0.4572440396
 H        -9.2712994304       11.1459359894       -3.7959407252
 H        -9.8443633954        9.8166817798       -4.8098938651
 H        -8.1284947121        9.8893813868       -4.5394650395
 H        -8.9558998309        8.8234195558        0.6307858648
 H        -9.9754970716        7.8990899866       -0.4979824242
 H       -10.1234273632        9.7428135294       -0.1840250722
 H        -7.1592800342       10.8469043580       -0.5761291593
 H        -8.8022138578       11.4921017944       -1.0398854633
 H        -7.5767248491       11.1040341032       -2.3252932434
 H        -1.8748126477        6.0150293827       -2.7645560413
 H        -1.6294849702        4.7970898250       -1.5681700539
 H        -2.1661040273        6.3219399195       -0.9870567746
 H        -3.2846033963        5.2968138138       -4.1848031091
 H        -4.8538911638        4.3567054521       -3.7748339759
 H        -3.2573563179        3.5908200026       -3.3851328306
 H        -8.7061514074        1.5084819394       -3.1190634678
 H        -7.2316227815        2.6513034592       -3.1307956778
 H        -8.3956744322        2.8298411719       -4.2425696026
 H        -7.4490931295        5.3557184542       -3.3061024747
 H        -9.1000436327        5.7883432559       -2.5778688040
 H        -8.9677839297        4.9211278204       -4.1219436469
 H       -16.3717426326        5.4813790761        0.0365900000
 H       -15.5638850626        4.1898736649       -0.8316865511
 H       -15.0939942277        6.0259598415       -1.1244008804
 H       -15.0108848091        6.5548353821        1.8754513753
 H       -13.9803634563        7.2176651168        0.5359165978
 H       -13.2073626123        6.4469246035        1.9311331705
 H       -15.5187089246        0.5353545266       -0.3453697611
 H       -16.6737959888       -0.4489921654        0.5753007967
 H       -15.4356957242       -1.1265153894       -0.4315515153
 H       -15.5488265996       -2.0504113973        2.9882334399
 H       -16.1664760915       -0.5068874541        3.2019865860
 H       -14.3332354199       -0.9283364145        3.4750460161
 H        -7.3913495980       -0.3076077189        1.7030125498
 H        -7.5394721426       -1.2748561983        3.3417010495
 H        -8.6436293864       -0.0632877972        3.0628646169
 H        -8.1705307232       -2.5697567285        0.2096857015
 H        -9.2592429758       -3.5658227638        0.8670971328
 H        -7.7171332306       -3.4000536097        1.6256484910
 Na      -10.9220875512        2.2025308067        0.2920364030
