117

 C        -9.0234336859       -3.4873760972        4.6880272876
 C        -9.8590873891       -2.5631425887        3.7220848601
 O       -11.0616754109       -2.4219745110        3.9870654842
 C        -9.1625133758       -1.7988536564        2.5786306483
 C       -10.2129912296       -1.1473744707        1.6131706427
 O       -10.1654057955        0.0446008088        1.3628610375
 C       -11.2037154311       -2.0667302515        0.8012393333
 C       -12.4141678309       -1.2965901000        0.3917367675
 C       -13.6495851296       -1.6422263973        1.2893274601
 O       -14.0791832611       -2.6996410513        1.6371824144
 C       -14.8429125610       -0.5277382475        1.4131286400
 C       -14.2682681933        0.8960959015        1.7810623188
 O       -13.3592391974        1.3512690788        1.0852632440
 C       -14.8437103473        1.6986989402        2.9428038746
 C       -14.2251177776        3.1026894689        2.8054094098
 C       -15.0467555329        4.1128546456        1.8872557399
 O       -16.2310627350        4.2871349285        2.1242423540
 C       -14.3364228683        5.0455421653        0.7089519967
 C       -13.1602533868        4.3924863234        0.0426689790
 O       -12.2273353798        3.9387279337        0.7221546387
 C       -13.0954470464        4.3889709499       -1.4948765718
 C       -11.6285523417        4.6705573521       -1.9539227025
 C       -10.7628401399        3.5123908238       -2.2323164296
 O       -11.1273520037        2.3488391052       -2.3510071822
 C        -9.1427195621        3.6030604442       -2.2263305727
 C        -8.4875911186        3.5902263700       -0.7419077598
 O        -9.0957307929        3.1372582783        0.2158597040
 C        -7.1854526915        4.3618406530       -0.4888709514
 C        -5.9593884415        4.2117168341       -1.4745416335
 C        -4.5850187621        4.7947403922       -0.9635073267
 O        -4.3123831242        4.7628572771        0.2263490380
 C        -3.6790251659        5.2961549701       -2.0590650978
 C        -4.5093731730        6.5632920716       -2.5793264562
 O        -5.1500836291        6.5670091596       -3.6518590072
 C        -4.3166627246        7.7761664126       -1.6983546335
 C        -5.3753693235        8.9268029344       -2.0846183404
 C        -6.8138755206        8.5577463388       -1.6784949536
 O        -7.0483807367        7.4704085206       -1.2189670286
 C        -7.9453254770        9.4944350174       -2.1626583751
 C        -8.2119576769        9.2217046412       -3.7028715766
 O        -8.7120205662        8.1659616777       -3.9658221185
 C        -7.8729723568       10.2762885404       -4.8294605665
 C        -9.3867458081        9.0483040235       -1.5318765096
 C        -7.6628184048       10.9639359518       -1.8070154080
 C        -2.2283862769        5.6570992872       -1.6353579811
 C        -3.4882102803        4.3404018035       -3.3529467516
 C        -8.4461012302        2.2292629664       -2.6994935978
 C        -8.6655361604        4.8133527935       -3.2390629200
 C       -15.5836360579        5.3216141266       -0.2906081612
 C       -13.7652531834        6.2774007238        1.4721718962
 C       -15.7905600969       -0.3224996333        0.1394543601
 C       -15.7111113332       -0.9778112588        2.6547065211
 C        -8.3265958476       -0.6062526672        3.3386739893
 C        -8.3276307165       -2.7118810573        1.7135943860
 H        -9.5744954750       -3.8838232294        5.4285706357
 H        -8.3044373156       -2.8489191672        5.2757223740
 H        -8.5537583895       -4.3735789767        4.3280941418
 H       -11.4501023663       -3.0403690182        1.3375186213
 H       -10.6922265313       -2.4433117544       -0.0394035083
 H       -12.5955602174       -1.6036508769       -0.7535085467
 H       -12.1785637025       -0.2430358028        0.5498361683
 H       -14.3367947642        1.3667699996        3.8807013927
 H       -15.9323378901        1.6244337670        3.0342099958
 H       -13.1788022647        2.9040403964        2.5221919788
 H       -14.2031720205        3.4069105941        3.8980292242
 H       -13.7981341564        4.9830771666       -2.0101857873
 H       -13.2363231126        3.4661081337       -1.8918558067
 H       -11.0232717656        5.4095502228       -1.4225519567
 H       -11.7500436703        4.9574942786       -2.9935010437
 H        -6.9471147826        4.1708759204        0.5980235178
 H        -7.4617670051        5.4341304708       -0.4318430037
 H        -6.1876385739        4.3806498276       -2.4722578648
 H        -5.8448404204        3.1406002810       -1.3342282511
 H        -3.2076234090        8.0578959992       -1.6593155578
 H        -4.7852447468        7.4264079867       -0.7320226624
 H        -5.4232637653        9.2200412257       -3.1080879949
 H        -4.8373276194        9.7850809439       -1.6169939391
 H        -7.9390371554       11.2720803464       -4.3447055376
 H        -8.7007969853       10.1876824980       -5.5684507918
 H        -6.9692277132       10.0804336887       -5.2813764202
 H        -9.6263398753        9.7007503606       -0.7063111829
 H        -9.4906646396        8.0173430944       -1.1292630805
 H       -10.2065805106        9.1240807543       -2.2370723695
 H        -7.4659295357       11.0147576932       -0.7616461049
 H        -8.5200807555       11.6021428832       -2.0176005947
 H        -6.8177641439       11.3332392558       -2.4517674777
 H        -1.7165379119        6.3114939158       -2.4581496587
 H        -1.6924274221        4.7324692061       -1.4090288770
 H        -2.1215522243        6.2537903031       -0.7286047370
 H        -3.5124369074        3.3273753333       -2.9537889675
 H        -2.6544964470        4.5469455191       -4.0171905533
 H        -4.3361508153        4.6442860174       -4.0323596718
 H        -8.2178428106        1.5364749434       -1.9190541056
 H        -7.4672711510        2.5346039902       -3.0926155746
 H        -9.0384421416        1.6309511824       -3.3729137568
 H        -7.7871987671        4.5365991540       -3.7824905594
 H        -8.4584241421        5.8380097610       -2.8082028216
 H        -9.5529622062        4.9479103590       -3.9277506897
 H       -16.5422138257        5.6565156576        0.1475151948
 H       -15.6387469005        4.3870681460       -0.8084072737
 H       -15.2403373027        6.1844588086       -1.0090165446
 H       -14.6766748801        6.9121621118        1.6779872849
 H       -13.1319159578        6.9278902791        0.9191712502
 H       -13.2890367783        5.8556007999        2.3553233182
 H       -16.7700914025        0.1463049201        0.3408757943
 H       -16.0022119103       -1.2778361287       -0.2771713677
 H       -15.4494675006        0.4505600653       -0.5356536280
 H       -16.0547098433       -2.0371313476        2.6284083123
 H       -16.6460227556       -0.4482866066        2.6370318014
 H       -15.2486641378       -0.6451993774        3.6578985755
 H        -8.5850085239        0.2740013616        2.8238085720
 H        -7.2189105066       -0.8817550852        3.2507967231
 H        -8.6772204913       -0.5388983871        4.4160297801
 H        -7.9320831363       -2.0721932574        0.9123088134
 H        -9.0159809814       -3.4203446966        1.2467329335
 H        -7.4143477079       -3.0688845400        2.1686216902
 Na      -11.1792936457        2.0232300864        0.2014728419
