117

 C       -12.7473545672       -1.0051400180       -9.1409892661
 C       -11.7940978310       -1.2867063267       -8.0009304457
 O       -11.6691967062       -2.4310242784       -7.5472794871
 C       -10.7004722291       -0.1610292856       -7.4061824048
 C       -10.9470665967        0.0092639215       -5.8901162022
 O       -11.5475443941        1.0267500069       -5.4874914987
 C       -10.4723845308       -1.0343785487       -4.9307649934
 C       -10.9784467160       -0.6804370268       -3.5273284745
 C       -10.1289463100       -1.3208113814       -2.4592533998
 O        -9.6589878300       -2.4134611680       -2.4553038584
 C        -9.8750821984       -0.5280761428       -1.0526853435
 C       -11.0585973201        0.5024458921       -0.6928512833
 O       -11.2318095166        1.4177326435       -1.4469585348
 C       -11.9983352033        0.2143724243        0.5368752352
 C       -13.1457503345        1.2283265774        0.7836399538
 C       -12.6769352514        2.5921667196        1.1504089826
 O       -11.7390117405        2.6987836256        1.9288016576
 C       -13.4757271303        3.8613719497        0.5935731252
 C       -13.1266760273        5.2232929098        1.3797370653
 O       -12.1197275713        5.3299424677        2.0529792561
 C       -13.9991143689        6.4580343850        1.1045446832
 C       -13.6501944122        7.7140823533        2.0268194878
 C       -12.2758271556        8.2692147755        1.6585995196
 O       -11.9317503974        8.3236683779        0.5034719329
 C       -11.1214658169        8.4657050061        2.7765191625
 C        -9.8219962027        7.7023568105        2.1367708989
 O        -9.5147231510        6.6853733115        2.6777104082
 C        -9.0027118018        8.4404752136        1.0748990018
 C        -7.5682499931        7.9118696678        1.0325106354
 C        -6.7479241735        8.1990582312        2.2892703016
 O        -7.1650360200        8.8995247868        3.1904961693
 C        -5.2069176882        7.6110673349        2.4096439178
 C        -5.3877673299        6.1060976809        2.7485387310
 O        -5.5295476991        5.3122278333        1.8375039263
 C        -5.4381202495        5.7367153375        4.2280557415
 C        -5.7149994756        4.2298139224        4.3696074350
 C        -7.0304063588        3.6694455490        3.6626534531
 O        -8.1368002516        3.9468880629        4.0197927201
 C        -6.8587557690        2.7415964474        2.3360647028
 C        -7.4833906368        3.3280353284        0.9284188305
 O        -8.5802333391        3.8702386455        0.8845571188
 C        -6.7625818259        3.1184163870       -0.4435661100
 C        -5.3685492710        2.1077133590        2.2776227365
 C        -7.7958502559        1.5751210055        2.7231602059
 C        -4.6392307981        7.7328733333        0.9543500706
 C        -4.5457268518        8.5399231545        3.4301893529
 C       -10.7599096021        9.9717597905        2.8669959203
 C       -11.5544438471        7.9664985183        4.1281406189
 C       -12.8059359348        4.0547124451       -0.8750507739
 C       -14.9853884189        3.6498206620        0.4597610571
 C        -9.6171626141       -1.4458321414        0.1653115358
 C        -8.6416431521        0.2817639373       -1.3731148735
 C        -9.2179792964       -0.7515076465       -7.7198145254
 C       -10.8781446393        1.2266892155       -8.2009697552
 H       -13.1976012880       -1.9985325220       -9.3541158138
 H       -12.2089533190       -0.5906986515       -9.9235423708
 H       -13.5329942758       -0.3503921514       -8.7624339426
 H        -9.4235466872       -1.0292128573       -4.8988904806
 H       -10.7317242047       -2.0846089728       -5.2109583113
 H       -11.9580223488       -1.0705884911       -3.3750580329
 H       -10.8567054896        0.4330860088       -3.4214238578
 H       -11.3117305046        0.2683533251        1.3804055666
 H       -12.4036223420       -0.8067682422        0.3678606461
 H       -13.7560207600        0.8658689328        1.5529959367
 H       -13.6064670467        1.4379010350       -0.2070639223
 H       -15.0982970441        6.2543212768        1.3224959423
 H       -13.9511194017        6.6143056634        0.0849129778
 H       -13.8658152705        7.5881840633        3.0763367955
 H       -14.3998163670        8.4611029530        1.7076488935
 H        -8.9888557503        9.4561922770        1.4339423129
 H        -9.4876584268        8.4411455435        0.1261731596
 H        -7.0569315394        8.5536860589        0.2927537431
 H        -7.4479259636        6.9101782720        0.6906739061
 H        -6.1595293940        6.3684971949        4.7291737150
 H        -4.5167126108        6.0112921632        4.6310316741
 H        -5.7772510182        4.0654434170        5.4451101962
 H        -4.8645005820        3.6391928615        4.0635069744
 H        -5.9229464717        2.4048121400       -0.4493469950
 H        -6.2069743279        3.9681490486       -0.8197302269
 H        -7.3367486842        2.7022079673       -1.2646806542
 H        -5.1223114208        1.7375882776        3.2097220650
 H        -4.6431907220        2.8889823923        1.9191297216
 H        -5.2600031398        1.2691333083        1.5589441960
 H        -8.7800126425        1.8997651242        2.8196582944
 H        -7.5538538949        1.2141100584        3.7411913261
 H        -7.7368395058        0.6461123840        2.0910100478
 H        -4.5082635808        8.7381343160        0.5395568042
 H        -5.2507725373        7.0949089317        0.2553969684
 H        -3.6459344123        7.2919032226        0.8867041984
 H        -3.7099956416        8.0817702103        4.0579643817
 H        -5.1599278674        9.1582167084        4.1589263326
 H        -3.9840357184        9.2415868822        2.7243484905
 H       -11.5879415770       10.4343819164        3.4545517813
 H       -10.7704040474       10.4670134139        1.9082114053
 H        -9.8072014884       10.2040184926        3.3696026730
 H       -11.7275741134        6.8778729457        4.1154916707
 H       -12.4863921828        8.4174919308        4.3699059230
 H       -10.8671560336        8.1157082574        4.9152257306
 H       -11.7817742256        3.7104787982       -0.9014481906
 H       -12.7728616451        5.0748556245       -1.0741323208
 H       -13.4076260365        3.4848788998       -1.6720792639
 H       -15.0688387182        2.6737879543        0.1272633980
 H       -15.3410418336        4.4057968998       -0.2160807451
 H       -15.4159397547        3.7236932280        1.4558355835
 H        -8.8496551959       -2.2239297968       -0.0880698645
 H       -10.4999397571       -1.9813910300        0.4898133069
 H        -9.1055959772       -0.8362822550        0.9903794861
 H        -8.8890364992        1.3790808404       -1.3740947170
 H        -8.1070542936       -0.0459158296       -2.2710419198
 H        -7.8618368573        0.1336707653       -0.6372682488
 H        -9.0256779438       -1.6682322252       -7.1783082789
 H        -8.4170107414       -0.1854218704       -7.3251497427
 H        -9.0994119271       -1.0961748199       -8.7127616500
 H       -11.9025279996        1.5193751011       -8.0851216310
 H       -10.5687115189        1.0143022582       -9.2479735736
 H       -10.1734898175        1.9576383897       -7.7404127840
 Na      -10.1767527777        4.3114891882        2.8325458634
