117

 C        -9.6623179218       -4.0763533440        4.9543726507
 C       -10.1644856279       -2.5666717676        4.6416936181
 O       -11.2303930068       -2.2081976398        5.1825058362
 C        -9.4933893917       -1.6252444957        3.5984354933
 C       -10.6879420787       -1.1015500533        2.7055211853
 O       -10.6673456244       -0.0604542477        2.1693917935
 C       -11.6706309194       -2.0690917097        2.2535909854
 C       -12.7614942146       -1.6709173493        1.1595474089
 C       -14.1792417362       -1.4703534214        1.6648985676
 O       -14.4937287926       -2.0689019033        2.6732320065
 C       -15.1797013163       -0.5690760025        0.9132339429
 C       -14.5773435050        0.8766853044        1.2380022213
 O       -13.7295605677        1.3597530043        0.5536683005
 C       -15.0932118323        1.5340487288        2.5774819292
 C       -14.4046158230        2.8408908187        2.9493295664
 C       -14.9411726734        3.8809452078        1.8939464495
 O       -15.9523748901        3.5947448760        1.2483428434
 C       -13.9742358565        5.0883158882        1.4393917512
 C       -12.9907559270        4.4853784671        0.3849707761
 O       -11.8205347758        4.4065735608        0.7413567782
 C       -13.4712233396        3.9659661705       -1.1497041191
 C       -12.2828143767        4.1313288265       -2.0610208399
 C       -11.2550340152        3.0145873891       -1.9318452709
 O       -11.5526689784        1.9550441117       -1.3429051210
 C        -9.8446318535        3.1388339346       -2.2905010750
 C        -9.0608002992        3.2987686507       -0.9621479418
 O        -9.2340749209        2.3836497911       -0.1424228402
 C        -7.7754716570        4.3137433760       -0.7876870970
 C        -6.3944465463        3.6663361000       -1.0655545223
 C        -5.0669353724        4.5320141296       -0.4067161432
 O        -5.0865495595        4.7462507061        0.7972651512
 C        -4.0502543908        5.0086289116       -1.4360168800
 C        -4.7587853255        6.2258428029       -2.1195387675
 O        -5.9295307302        5.9984163919       -2.4944586205
 C        -3.9767280607        7.4892114343       -2.6511564433
 C        -4.8087328218        8.3168326064       -3.7274734620
 C        -5.4723849170        9.6302299965       -3.2102545977
 O        -4.9977719056       10.2162378324       -2.2696597510
 C        -6.7122963186       10.1683630286       -3.9782694545
 C        -6.4036280754       10.0641841009       -5.5267018727
 O        -6.8904521812        9.1238671326       -6.1341790822
 C        -5.7567539580       11.1399172153       -6.3083835268
 C        -7.9945965775        9.4809592213       -3.5918947381
 C        -7.0231947654       11.6575311646       -3.5507126287
 C        -2.8712569190        5.5507957371       -0.6945552673
 C        -3.5155982151        4.0811735580       -2.4983757712
 C        -9.2695877475        1.8218845992       -2.9159970196
 C        -9.6092503048        4.2641482000       -3.4600324311
 C       -14.8124108726        6.2315705695        0.7432104449
 C       -13.2230520228        5.6271071194        2.7039722118
 C       -15.1802179013       -0.7086896972       -0.5582050315
 C       -16.5953058881       -0.7669775635        1.4308587685
 C        -8.6440059317       -0.6511538324        4.3584972985
 C        -8.6072813548       -2.3778145072        2.6054118870
 H       -10.3794437507       -4.6082195031        5.5056152114
 H        -8.7226718646       -4.2636538676        5.4915842602
 H        -9.4253857344       -4.6221302702        4.0724668713
 H       -12.1309789015       -2.5732909767        3.0543900296
 H       -11.0120523586       -2.9192754514        1.8545239722
 H       -12.7978583232       -2.4939652077        0.4379365508
 H       -12.4139879163       -0.7827132495        0.7259056692
 H       -15.0298933733        0.8513965131        3.3706256822
 H       -16.1870060472        1.7501735693        2.4809362243
 H       -13.2902680613        2.7556640462        2.9066722525
 H       -14.7699112805        3.0048157976        4.0070941437
 H       -14.3270127134        4.4474356183       -1.5305936065
 H       -13.5398338447        2.9319582456       -1.1633231658
 H       -11.9144481263        5.0441855557       -2.2422961480
 H       -12.6661224002        3.8088570310       -3.0458053730
 H        -7.7283224097        4.6318188790        0.2858314608
 H        -7.9011960864        5.1351707612       -1.5245861389
 H        -6.4253319775        3.4993844108       -2.1104590541
 H        -6.3112160437        2.7569319140       -0.5401812266
 H        -2.9236246314        7.3165987615       -2.8746471845
 H        -3.9078065573        8.1151918138       -1.6418459183
 H        -5.6033958589        7.6544870665       -4.1871854728
 H        -4.1021420990        8.4633353504       -4.5175531168
 H        -5.0715048843       10.5637390075       -7.0057738032
 H        -5.1678864475       11.6946454641       -5.5810685485
 H        -6.4366239301       11.7142579042       -6.8290100213
 H        -7.9865240268        8.4394639220       -3.7786888236
 H        -8.7646005767        9.8237299006       -4.2325126083
 H        -8.2117454676        9.5494779394       -2.5314799731
 H        -7.7092889794       11.7153810731       -2.7193293021
 H        -7.5309475301       12.1781712144       -4.3920945343
 H        -6.1415956768       12.1907762375       -3.3006024465
 H        -1.9750177948        5.6766571990       -1.3332455876
 H        -2.5308994505        4.7995856404        0.0172089548
 H        -3.2344292442        6.3544745613       -0.0889121551
 H        -4.2105507890        3.3319222048       -2.8273951545
 H        -2.7627934186        3.4925403855       -1.9331805531
 H        -3.1607649425        4.6794397500       -3.3731722658
 H        -9.4179783895        0.9591056105       -2.2866026372
 H        -8.2146470920        2.0612950584       -3.0306619925
 H        -9.5559469454        1.7347513524       -3.9052853657
 H       -10.0718232998        4.0969461301       -4.3620277649
 H        -8.5435610111        4.4102781543       -3.6649415481
 H       -10.1311999233        5.2107877879       -3.0664998032
 H       -15.6391333654        6.3927064285        1.5130877586
 H       -15.3316211018        5.9208530781       -0.1323261070
 H       -14.3151942232        7.2273826463        0.4560184111
 H       -13.9170579857        5.9389841843        3.4994875113
 H       -12.4925147433        6.3782624034        2.3453629432
 H       -12.6490948675        4.7999304633        3.1460619128
 H       -15.8316553534       -1.5494435260       -0.7867498901
 H       -14.1507949093       -0.8714537748       -0.9020701579
 H       -15.4347611938        0.2657437708       -1.0813926040
 H       -17.1546495604       -1.5040336659        0.8435455418
 H       -17.1007532042        0.1935214043        1.4361390112
 H       -16.3525727575       -1.3122582749        2.3873385642
 H        -7.9219418574       -0.1289419153        3.7937327645
 H        -8.0535067176       -1.3252280820        5.0943455066
 H        -9.2991402812        0.0550337018        4.9764219352
 H        -8.4638734194       -1.6470729982        1.8099308558
 H        -9.0695103045       -3.2718803223        2.1769082528
 H        -7.6871448102       -2.5664063293        3.1369129484
 Na      -11.3407782269        1.8038325564        0.7854472535
