117

 C        -9.6871816148       -4.0889588143        5.0977050402
 C       -10.2619560878       -2.6517701265        4.8286951034
 O       -11.1782589736       -2.1301631582        5.4988352467
 C        -9.7083450496       -1.6374854494        3.6801192768
 C       -10.9298302926       -0.9155217961        2.8986753265
 O       -11.0082682573        0.2833147575        2.7926212816
 C       -11.9695469386       -1.9611569457        2.5155178063
 C       -12.8540370128       -1.7531595360        1.2842175600
 C       -14.3069968870       -1.3408211678        1.8399478358
 O       -14.5512908188       -1.5154139579        3.0082795918
 C       -15.2597403662       -0.6069668992        0.7762368584
 C       -14.6300978144        0.7455677348        1.2916171839
 O       -13.6833358816        1.2390655204        0.7020895482
 C       -15.1839328952        1.3860023056        2.6584695681
 C       -14.6292443390        2.7940511212        2.8113881524
 C       -14.7440376063        3.6708867991        1.5885292474
 O       -15.5453051950        3.5944724531        0.6611666950
 C       -13.8014631988        4.9711974240        1.6221180390
 C       -12.7825629629        4.4074708118        0.5121296785
 O       -11.7509515854        3.8899720692        0.8821748196
 C       -13.3260394441        4.1804579127       -1.0042793103
 C       -12.2807507171        4.1364632302       -2.0881428489
 C       -11.4828208803        2.8708470166       -2.0427582321
 O       -11.8505135156        1.7874812783       -1.5621097130
 C        -9.8306429328        3.0712823189       -2.1381143199
 C        -9.0797630476        3.1780923837       -0.8584120598
 O        -9.4028164631        2.5786797539        0.1751066611
 C        -7.9219282304        4.1361611671       -0.8144364519
 C        -6.5978768971        3.4301180545       -0.9805458898
 C        -5.4522115701        4.3700573372       -0.3603890002
 O        -5.3284900549        4.5927979257        0.8939636953
 C        -4.2855855578        5.1558859147       -1.2623449901
 C        -5.0246904114        6.1371828504       -2.2049068064
 O        -6.2007640165        5.9870216522       -2.5655030178
 C        -4.2346691342        7.3886956267       -2.6842449265
 C        -4.8037239579        8.1881405508       -3.8970443154
 C        -5.1383752347        9.7341490812       -3.6526548776
 O        -4.3193148314       10.4895662508       -3.1826500815
 C        -6.2728555614       10.3435412522       -4.4784644154
 C        -5.9285450071       10.2415021969       -6.0250146495
 O        -6.2100255449        9.2222776178       -6.6526958595
 C        -5.2229547290       11.4633233325       -6.6553076010
 C        -7.7083026484        9.7238802968       -4.2708511222
 C        -6.4608671743       11.7507730439       -3.9485305228
 C        -3.2330018955        5.8594201309       -0.4102808343
 C        -3.7059477904        4.0264414241       -2.1686663684
 C        -9.5281767421        1.8317030671       -2.9284816031
 C        -9.6122018999        4.3032718627       -3.1000492458
 C       -14.5793111895        6.2817175584        1.3303547034
 C       -12.9644978336        5.1862476478        2.9489264387
 C       -14.9286080502       -0.9160245844       -0.6698810539
 C       -16.8251832298       -0.7139465101        0.9198388998
 C        -8.9895007707       -0.5160223110        4.4221162211
 C        -8.6613703027       -2.4972529408        2.9022262562
 H        -9.9598968557       -4.2983702623        6.0754984667
 H        -8.5867760148       -4.1941230443        5.0549585553
 H       -10.0209131156       -4.9516356296        4.4846035304
 H       -12.7079020931       -1.9707750660        3.3501803625
 H       -11.4478964641       -2.9549220636        2.6958025817
 H       -13.0324497287       -2.6065202479        0.5660043037
 H       -12.4309362028       -0.8734222677        0.6235565903
 H       -14.9879763311        0.6965700696        3.5405730386
 H       -16.3397340741        1.4178635750        2.6030480603
 H       -13.5650811481        2.7493933083        2.9878788511
 H       -15.1009851030        3.3130552887        3.6082312012
 H       -14.0884216874        4.9555805657       -1.2163792685
 H       -13.7194284556        3.1733295233       -0.9432606398
 H       -11.7164071117        5.0498641824       -2.2170650606
 H       -12.7787525168        4.0635787671       -3.1693404815
 H        -7.9099771836        4.6029792667        0.1869803653
 H        -7.9329457586        4.8297595221       -1.6944022640
 H        -6.4760102198        3.2790580360       -2.1048467637
 H        -6.7714138116        2.4551232935       -0.4626306002
 H        -3.1662347761        7.1979421934       -2.6740869549
 H        -4.2962807975        7.9928385623       -1.7621146434
 H        -5.7998389009        7.6447902495       -4.1130061502
 H        -4.1221331959        8.1501585764       -4.7492446952
 H        -4.1061856832       11.2197259747       -6.7788147225
 H        -5.3075904611       12.2907568736       -5.9755117766
 H        -5.6797231229       11.5901008867       -7.5701412815
 H        -8.0116509600        8.7565448738       -4.6998868444
 H        -8.4141774477       10.4687349567       -4.6601254919
 H        -7.7172658852        9.4715269119       -3.1754876684
 H        -6.8406284933       11.7311413635       -2.8995249116
 H        -7.2568275979       12.2683865770       -4.5410637979
 H        -5.6149554431       12.3096541296       -4.1002692926
 H        -2.7042819755        6.3927735559       -1.1733959682
 H        -2.5097872650        5.3008637559        0.1730075406
 H        -3.7595487603        6.4855493513        0.2858203361
 H        -4.2420208600        3.6124063244       -2.9431953701
 H        -3.3665567173        3.1452321000       -1.5754178634
 H        -2.8406621944        4.5830158027       -2.4400892460
 H        -9.6566015462        0.8621972524       -2.3238437435
 H        -8.5893016210        1.9485190139       -3.5430509372
 H       -10.2999791607        1.8196661224       -3.6609492897
 H       -10.5609403182        4.5260557476       -3.5621143155
 H        -9.0396293419        4.0498238824       -4.0361675790
 H        -9.3115925615        5.3666533761       -2.7369384052
 H       -14.6575592265        6.9758166641        2.1814468197
 H       -15.4249304964        6.2264372108        0.7307224317
 H       -13.8411771605        6.8595346775        0.7407482594
 H       -13.4515953819        4.7415379033        3.7751512879
 H       -13.0644933222        6.2629394259        3.2170741558
 H       -11.9609863489        4.7595071343        2.9348533622
 H       -15.2541202789       -1.9132084218       -0.9281196743
 H       -13.8696800679       -0.7924381553       -0.8871559350
 H       -15.6738550143       -0.2364567104       -1.1659139654
 H       -17.1745956287       -1.7138103425        0.6898052721
 H       -17.1223442686       -0.1757799668        0.0127364611
 H       -17.0643446841       -0.5118697332        1.9340921982
 H        -8.4679542354        0.1060969040        3.7158138802
 H        -8.2786512041       -0.9900737453        5.1206940018
 H        -9.5577649907        0.2198407791        5.0633177412
 H        -7.9908498816       -1.9658499942        2.1706026384
 H        -9.3066722641       -3.2502058875        2.3653914855
 H        -7.8829081618       -2.8089131932        3.6475173871
 Na      -11.3365728723        1.5765244867        0.9645117702
