117

 C        -9.7488491750       -3.9570593354        5.1709894070
 C       -10.3166173407       -2.5153919760        4.9412764930
 O       -11.2006658650       -2.2185476864        5.6695983345
 C        -9.7285828596       -1.6461788735        3.8343236117
 C       -10.9756773458       -1.0822782066        3.0401718795
 O       -11.1277470501        0.0496429188        2.8051349648
 C       -12.0758940293       -2.0807525739        2.6587659281
 C       -12.8910346289       -1.6971272558        1.4151742665
 C       -14.3474838172       -1.3840943163        1.7854213606
 O       -14.6951378289       -1.4247615129        2.9601056236
 C       -15.3134117506       -0.5828627297        0.7036998177
 C       -14.7622859779        0.7918343279        1.1898781268
 O       -13.7230317861        1.2161196379        0.7850574028
 C       -15.3653993536        1.5101920766        2.4962569647
 C       -14.7031713375        2.7714236737        2.9165739435
 C       -14.7201967140        3.8061897802        1.7602246972
 O       -15.3926073253        3.5249061591        0.7948295006
 C       -13.6590475169        4.9735711421        1.6269462254
 C       -12.7971698215        4.3928098073        0.5837515549
 O       -11.7799366619        3.7993158762        0.9151673965
 C       -13.4425577831        4.3531916591       -0.8819200432
 C       -12.3473625066        4.1708595005       -1.9622411820
 C       -11.4519108382        2.9995797193       -1.8628939548
 O       -11.8985925036        1.9006426527       -1.5922871942
 C        -9.9641214666        2.9995542050       -2.2842242533
 C        -9.1756263456        3.1224695654       -0.8164427814
 O        -9.4571209749        2.5348979279        0.1838706826
 C        -7.9057528149        4.1510839197       -0.6690538777
 C        -6.5096894199        3.5067565643       -0.8928852960
 C        -5.4983088025        4.3873785774       -0.3106049800
 O        -5.5213080494        4.4754223569        0.8862203117
 C        -4.4089440461        5.1812022467       -1.2589028443
 C        -5.1171616867        6.1920730577       -2.2489145221
 O        -6.2722578234        6.0470855993       -2.7149404364
 C        -4.3081090546        7.4464207514       -2.6337752187
 C        -4.7923758515        8.0975828668       -3.9114471672
 C        -4.9737396256        9.5884513706       -3.9887944658
 O        -4.1702647999       10.3785210932       -3.4663401469
 C        -6.2929334127       10.4868095493       -4.6014275191
 C        -5.7690561312       10.3195668464       -6.1897582543
 O        -5.9455722436        9.2785384853       -6.7663442886
 C        -5.0125845566       11.4532652856       -6.8685049356
 C        -7.7584832119        9.8335200989       -4.5523549581
 C        -6.1890289550       11.8577737455       -3.8939462585
 C        -3.4537254323        5.8953439475       -0.2860464338
 C        -3.6622444580        4.0561883438       -2.1309369178
 C        -9.4193101823        1.6292976482       -2.9655975333
 C        -9.4673286971        4.2728535766       -3.1347586637
 C       -14.4332125667        6.2496747681        1.2569995341
 C       -12.8784559939        5.0766079359        2.9766989742
 C       -14.7763733828       -0.9461866633       -0.6609041645
 C       -16.7977716699       -0.9263656440        0.8929759497
 C        -8.9219076810       -0.3772767771        4.4598939200
 C        -8.7786684875       -2.3984980973        2.8888380227
 H       -10.0446349142       -4.1888803339        6.2631710745
 H        -8.7715942159       -4.2348774846        4.9930125052
 H       -10.3086330701       -4.6575879154        4.6798377193
 H       -12.7110270360       -2.2443889236        3.5380339801
 H       -11.5724073769       -3.1314284875        2.5523359417
 H       -12.7772753218       -2.4026115734        0.4989693539
 H       -12.5939109873       -0.7634809846        1.0538743868
 H       -15.1753040734        0.8332954136        3.3258689023
 H       -16.5125105273        1.5780839356        2.5122287705
 H       -13.6770180948        2.5608490565        3.2491551159
 H       -15.2874125821        3.1557302201        3.7972390742
 H       -14.0430465647        5.1617328179       -1.0722195831
 H       -13.9572133872        3.4759428503       -0.7986378550
 H       -11.9724987576        5.0830904777       -2.2970732745
 H       -12.8528532291        3.8028304665       -2.8999860627
 H        -7.9166815321        4.4543040430        0.4688193834
 H        -7.8351706042        4.9821478424       -1.4161805814
 H        -6.4005601711        3.2422301796       -1.9488911240
 H        -6.6106294497        2.6145950611       -0.2752368671
 H        -3.3054202616        7.0632831926       -2.6703572274
 H        -4.1349842333        8.2815686480       -1.7767882259
 H        -5.6777212262        7.4891312784       -4.2880724179
 H        -3.9295885640        8.0695285484       -4.5991528450
 H        -3.9665538215       11.1699774225       -6.6807413648
 H        -5.1815978244       12.3576123180       -6.3156283733
 H        -5.2374662634       11.4548767023       -7.9079055443
 H        -7.9494872998        9.1386369942       -5.3636067752
 H        -8.4993627313       10.6225986848       -4.6805438598
 H        -7.8421765600        9.1519413445       -3.7017944396
 H        -6.2652474664       11.7260580215       -2.8716492204
 H        -6.9472766107       12.5683193349       -4.1884274288
 H        -5.2580396120       12.3116798342       -4.2599857580
 H        -2.6855963479        6.3365932156       -0.9424923964
 H        -3.0144112059        5.1922171227        0.3656080736
 H        -3.9613784252        6.5664875806        0.3374090708
 H        -4.1326907899        3.7673405175       -3.0215322478
 H        -3.6209571040        3.1406100846       -1.6023491727
 H        -2.6502784393        4.3784604229       -2.2237143256
 H        -9.6810715063        0.7193691932       -2.4932791490
 H        -8.3644156561        1.8902123773       -3.1536272161
 H        -9.8685223705        1.5992821820       -3.9713639726
 H        -9.6664249620        4.2195878081       -4.2151059422
 H        -8.3764754860        4.3986638788       -3.1373658286
 H       -10.0595230945        5.2015071083       -2.7400819743
 H       -14.7072661888        6.7487855796        2.1945314216
 H       -15.2698343617        6.0717821568        0.5991643602
 H       -13.8839853159        7.1152357904        0.7805054167
 H       -13.4622508644        5.0067872463        3.9395795399
 H       -12.5728257212        6.0948706720        3.0236329989
 H       -12.0818689959        4.3714967232        2.9816523149
 H       -14.6308391556       -2.0573103184       -0.6844269558
 H       -13.7778255685       -0.5312786488       -0.7398595484
 H       -15.5922777889       -0.7320515305       -1.3857659810
 H       -17.0302125286       -1.9777266385        0.6581404175
 H       -17.1672205244       -0.4747533986        0.0441962481
 H       -17.0639010621       -0.7250760662        1.9682573964
 H        -8.8893027924        0.4808000388        3.8694268641
 H        -7.9042508609       -0.6984623608        4.9605374047
 H        -9.4946685311       -0.0531856549        5.3803753373
 H        -8.3343601750       -1.4980643031        2.3155947545
 H        -9.3497487896       -3.0442966292        2.1131090402
 H        -7.8980467163       -2.7445973356        3.3869390576
 Na      -11.2920866177        1.5840583803        0.8723664406
