117

 C        -9.7735325031       -3.9173544071        5.3714908689
 C       -10.3344473853       -2.5410290202        5.1173419964
 O       -11.1483491072       -2.0814675430        5.9489940528
 C        -9.9415887478       -1.5322809668        4.0751976176
 C       -11.1649630391       -1.1165971982        3.2308652092
 O       -11.0942888715       -0.0421938586        2.5894549469
 C       -12.1477871748       -2.2882477671        2.8514569586
 C       -12.9682799513       -1.9541777411        1.6429901739
 C       -14.4191329700       -1.4017693527        1.9821340458
 O       -14.9980299065       -1.5876491605        3.0249682630
 C       -15.1323690354       -0.6223733385        0.7861470578
 C       -14.8555187515        0.8223311751        1.2417603747
 O       -13.8521302541        1.4507580780        0.8582111987
 C       -15.7700929291        1.4088541921        2.2231222536
 C       -14.9520714145        2.6128117233        2.9147303812
 C       -14.7710618024        3.7121131153        1.9186450296
 O       -15.6275438974        3.8188523394        1.0535803470
 C       -13.5861765452        4.7430504139        1.7878914397
 C       -12.7569303575        4.3639074842        0.5529606699
 O       -11.6766151549        3.8913791678        0.8396340313
 C       -13.2782912521        4.5566569637       -0.9949340263
 C       -12.1303193787        4.3603713561       -1.8919609597
 C       -11.3142482935        3.0562564693       -1.8009881789
 O       -11.8654806293        1.9946637297       -1.4818230678
 C        -9.9793542531        3.1140564073       -2.3098077480
 C        -9.1417318238        3.0911355862       -0.7411687699
 O        -9.4028414166        2.1353343800       -0.0145229447
 C        -8.0888346663        4.0779891373       -0.4083743208
 C        -6.6315523776        3.6588783466       -1.0378169106
 C        -5.6011529906        4.5629216957       -0.3640301709
 O        -5.6149924713        4.4943985477        0.9137627788
 C        -4.5575801913        5.2963995499       -1.1634082319
 C        -5.2529469274        6.2377801004       -2.2699248786
 O        -6.3141381374        5.8694271638       -2.6978049605
 C        -4.6179905139        7.4865160712       -2.7414834532
 C        -5.1730356206        7.9962239532       -4.1376535100
 C        -4.7909126515        9.5519619125       -4.2818112666
 O        -3.7591107452        9.9676576608       -3.8370984446
 C        -5.8637209840       10.4794060843       -4.8913936426
 C        -5.3136557543       10.3838796164       -6.4026759039
 O        -5.6394014133        9.3779027883       -7.0487241144
 C        -4.6134423023       11.6206696534       -7.0188279436
 C        -7.2868596811        9.8411381592       -4.7988976597
 C        -5.8472348755       11.9690820242       -4.3193828870
 C        -3.5510591309        6.0990572559       -0.0944887070
 C        -3.7555842480        4.3094515721       -2.0589124855
 C        -9.4016721618        1.6282337255       -2.6722917134
 C        -9.4922410328        4.1418798180       -3.3978962084
 C       -14.2896236127        6.1534565429        1.4898804869
 C       -12.7679366024        5.1854858864        3.0499097492
 C       -14.6211695026       -0.8392494827       -0.6383858898
 C       -16.6018557734       -1.0700988006        0.8759432207
 C        -9.1924756446       -0.3847751829        4.6239095102
 C        -8.9704101908       -2.1944681589        2.9132389039
 H       -10.0247412457       -4.2787029845        6.3176333407
 H        -8.6343586860       -3.7986840896        5.2493448032
 H       -10.1596942042       -4.8079230374        4.7142684834
 H       -12.6366353816       -2.5208169630        3.8133946280
 H       -11.6070627862       -3.1405009690        2.6137614192
 H       -13.0313672912       -2.7818545469        1.0284702715
 H       -12.5045821084       -1.2349795325        0.8998085745
 H       -16.2232103370        0.6902788894        2.8868654068
 H       -16.5659428514        1.7129111856        1.6191386751
 H       -13.9228416746        2.2729008900        3.1848915210
 H       -15.3904670720        3.0247101695        3.8307202317
 H       -13.7845301738        5.5786300969       -1.1929283524
 H       -13.9941274033        3.6540577967       -1.1365420411
 H       -11.4404999481        5.2255782558       -2.0337316978
 H       -12.6674982691        4.3007295192       -2.8149567246
 H        -7.9605848945        4.1345560523        0.5961430454
 H        -8.1836280236        4.9985908626       -0.9087227469
 H        -6.6616229505        3.7896950434       -2.1068755525
 H        -6.4765312915        2.6327810159       -0.7658612078
 H        -3.4944281179        7.3800031151       -2.6349083416
 H        -4.7603525764        8.2578534705       -2.1042664140
 H        -6.2270731368        7.9225208167       -4.0446134994
 H        -4.7753343916        7.4181786601       -4.9698761903
 H        -3.7567163269       12.0223759318       -6.4287583592
 H        -5.4047535526       12.3808693649       -6.9876304385
 H        -4.4291345828       11.3380867187       -8.0389135573
 H        -7.5615563938        9.1944405903       -5.6031731273
 H        -7.9356942354       10.6791038640       -4.8489070522
 H        -7.4816691190        9.3179035643       -3.8773426400
 H        -6.1671674921       11.8071969355       -3.2415432271
 H        -6.6428548077       12.5446163653       -4.8043628876
 H        -4.9818960095       12.5485287734       -4.4455139627
 H        -2.6427167416        6.5380859694       -0.4569524168
 H        -3.4084581791        5.2807686373        0.6513572221
 H        -4.2116723689        6.7953137301        0.4886073544
 H        -4.4779713146        3.9347361080       -2.7999304522
 H        -3.4702484445        3.3438497738       -1.4657583876
 H        -2.7317138269        4.6342683211       -2.3040002852
 H       -10.0227784175        0.9947652100       -2.0068585026
 H        -8.3856239140        1.6615109602       -2.3343217019
 H        -9.5791837191        1.2908818002       -3.6557074700
 H        -8.5346665162        3.9059417010       -3.7374515883
 H        -9.4423736821        5.1533008150       -2.9901782927
 H       -10.1448721864        4.2292046072       -4.2544129627
 H       -14.8257774869        6.6583612708        2.3038696186
 H       -14.8983854848        6.0775716459        0.5876583607
 H       -13.5695612581        6.9242227252        1.2765912793
 H       -13.1799298021        6.0279005554        3.5315175334
 H       -11.7091911027        5.5196383697        2.9194235928
 H       -12.8534346522        4.3293174949        3.7468575022
 H       -14.2293577912       -1.8030835849       -0.8214827366
 H       -13.7966219604       -0.1713084807       -0.8118187563
 H       -15.5291139255       -0.7359854034       -1.1814245518
 H       -16.5897137380       -2.0719640567        0.4504680861
 H       -17.2931285464       -0.4961757896        0.1728286992
 H       -16.7291262711       -1.1531798648        1.9092393078
 H        -9.5739735485        0.4647932177        3.9890897516
 H        -8.1571275347       -0.4838635856        4.5776567758
 H        -9.3275773489       -0.0774935846        5.6383465296
 H        -8.8515477395       -1.5966066036        2.0931515412
 H        -9.4090823667       -3.0883520831        2.6542341046
 H        -7.9684556533       -2.3641741676        3.3360174834
 Na      -11.5080333050        1.3092742161        0.7762732066
