117

 C        -9.6758675239       -3.7740820556        5.4417686004
 C       -10.4015413570       -2.4816258967        5.4147201091
 O       -11.0949346921       -2.0324459718        6.2378226773
 C        -9.9001799246       -1.5942315661        4.1154313821
 C       -11.1252626131       -1.1481506775        3.1983231842
 O       -11.2255590865       -0.1392165955        2.5176783549
 C       -12.2462233486       -2.2040300340        3.0653981799
 C       -13.0548199809       -2.4197133344        1.7277159318
 C       -14.4503960733       -1.6328447014        1.9268563984
 O       -14.9684196141       -1.7370893322        3.0181939705
 C       -15.1232026484       -0.6912150534        0.8856974693
 C       -14.9270505428        0.7402394075        1.4207186338
 O       -14.1018762828        1.4360172023        0.8449161592
 C       -15.8842334600        1.5521141601        2.3916680022
 C       -15.2419367978        2.8220383332        2.9310392928
 C       -15.0855452968        4.0471425125        1.8694369240
 O       -16.0268206347        4.2392889742        1.1526907922
 C       -13.6645164360        4.8433474978        1.7945857417
 C       -12.6715879040        4.4095092565        0.6014621431
 O       -11.5612119720        3.9637227836        0.8333066702
 C       -13.1270085234        4.5571875014       -0.8282543076
 C       -11.8311449360        4.5387074942       -1.7827379672
 C       -11.3635516215        3.0693495352       -1.7015492063
 O       -12.1470319402        2.1397499980       -1.4734779082
 C        -9.9663540049        2.7673830733       -2.3239219265
 C        -9.1910213560        2.8809508236       -0.6755591197
 O        -9.2922177858        2.0202597010        0.1445706891
 C        -8.2578520805        4.0522968703       -0.3627341585
 C        -6.8406950455        3.6816480343       -0.9047516755
 C        -5.6620102103        4.6394921380       -0.2294457927
 O        -5.6317816597        4.7066765048        0.9095505218
 C        -4.6951492335        5.3647864496       -1.1562910406
 C        -5.4117230487        6.2536219491       -2.2515862217
 O        -6.4811783380        6.0090742639       -2.7804327254
 C        -4.5922235006        7.4714452213       -2.6831867666
 C        -5.2972396818        8.0400506184       -3.8804139750
 C        -4.6346460227        9.3462466437       -4.4180988268
 O        -3.4910848231        9.6542106069       -4.1663869331
 C        -5.5765094805       10.4312030437       -5.2448804056
 C        -4.9378530992       10.4150332718       -6.7657590905
 O        -5.2665984084        9.5635981058       -7.5177920793
 C        -4.2158391576       11.7114827458       -7.2978238163
 C        -7.1160406485       10.1514875345       -5.2089113855
 C        -5.3030410411       11.8080453261       -4.5952461635
 C        -3.7928499242        6.3420437397       -0.3576720541
 C        -3.6066485170        4.4254100038       -1.8782909942
 C        -9.6090404414        1.4298028902       -2.9694569896
 C        -9.1675860586        3.8829648602       -3.1758046964
 C       -14.2025878648        6.1955845475        1.6092275972
 C       -12.8627249849        4.5054786978        3.1345820489
 C       -14.3488053379       -0.8771843255       -0.5452484145
 C       -16.7040572552       -0.9405919769        0.6720289617
 C        -9.4388643146       -0.2291856876        4.7050193127
 C        -8.8871880331       -2.2680684903        3.3028535878
 H       -10.1125962148       -4.5055932165        6.1500127823
 H        -8.6335229049       -3.6293968774        5.5998386072
 H        -9.9025592639       -4.3432900849        4.5843982239
 H       -13.0461832931       -1.7798548219        3.7029732333
 H       -12.0155997264       -3.2453515467        3.5476583057
 H       -13.3843959101       -3.5550246575        1.6008977833
 H       -12.6718750250       -2.3120175786        0.7307754029
 H       -16.2155935188        1.0167746582        3.3253079180
 H       -16.9249738634        1.8030819497        1.9421600286
 H       -14.3092890340        2.5071761399        3.3488965776
 H       -15.7776153980        3.1771738290        3.7999431082
 H       -13.5460167717        5.5085763802       -0.7279897777
 H       -13.8324718459        3.8061401897       -1.0380170881
 H       -11.0196487646        5.2508413712       -1.5109425584
 H       -12.0910213711        4.7646686728       -2.8671640269
 H        -8.0582923207        4.2262489080        0.7835127092
 H        -8.3919984781        5.0636341244       -0.8487808928
 H        -6.7843118995        3.8713185677       -2.0057691601
 H        -6.6969084329        2.5892234531       -0.6511985238
 H        -3.5553954832        7.5684948319       -2.9135480993
 H        -4.7322288269        8.1878781453       -1.7561309751
 H        -6.2397372468        8.4930022372       -3.5645731766
 H        -5.3368910844        7.1416597035       -4.5181397889
 H        -3.7326845794       12.1784023355       -6.5248908169
 H        -5.0498689596       12.3502833314       -7.6016010208
 H        -3.5512842679       11.4378573136       -8.1665866608
 H        -7.2846485505        9.0321013978       -5.2241858417
 H        -7.7944899835       10.6666572679       -5.9673358070
 H        -7.4862313531       10.5669674400       -4.2159789850
 H        -5.9617308881       12.0371181217       -3.7970847631
 H        -5.3428312177       12.5606788961       -5.3874194157
 H        -4.2039583914       11.8748982360       -4.1882682884
 H        -3.1351382225        6.8986061082       -1.0659702131
 H        -3.2320934176        5.7882704453        0.3787692146
 H        -4.4816121137        7.0669138089        0.0783418278
 H        -4.2425835652        3.5404786418       -2.0042725630
 H        -2.7790776989        4.2091079717       -1.3059866269
 H        -3.1407489975        4.7584681925       -2.8151178145
 H        -9.6452346888        0.7493947360       -2.1332298813
 H        -8.5546482428        1.5288377751       -3.2523788380
 H       -10.4339779907        1.0972472769       -3.6952699119
 H        -8.4234551094        4.4401280670       -2.4303148445
 H        -9.8516712912        4.6968921337       -3.5299755445
 H        -8.5709819102        3.7229919166       -4.0685729009
 H       -14.8219738471        6.4195222276        2.4588672850
 H       -14.9343275608        6.3044656358        0.7707638689
 H       -13.5921515780        7.0856690383        1.5537163796
 H       -12.1812861885        5.3464623700        3.4555699251
 H       -12.0967707756        3.7815308985        2.9260653721
 H       -13.4787980188        4.1340056617        3.9403347498
 H       -14.5528154512       -1.9383327499       -0.8111199359
 H       -13.2986504162       -0.8947459620       -0.2691028255
 H       -14.6220935594       -0.2307604238       -1.3479870654
 H       -16.7749707796       -1.8921203821        0.0976842303
 H       -16.9813711684       -0.1429528217        0.0467101924
 H       -17.1555654292       -0.8777147616        1.7031798655
 H        -9.1620478566        0.5799110064        3.9888667620
 H        -8.7005085341       -0.2530845807        5.5330581715
 H       -10.2835712587        0.1803034070        5.2542366624
 H        -8.6194557117       -1.4950322257        2.5093694120
 H        -9.2464145397       -3.2512414448        2.8449653541
 H        -8.0062717822       -2.5383607412        3.8901589409
 Na      -11.7225926789        1.1712801355        0.5438161672
