117

 C        -9.7337535441       -3.7916318095        5.5997698122
 C       -10.3537932474       -2.4222888707        5.3978913582
 O       -11.1233570570       -1.9836353846        6.2808460875
 C       -10.0438920933       -1.5012733158        4.1650354550
 C       -11.2347141042       -1.3229162956        3.2105261068
 O       -11.1054255790       -0.2601964198        2.4935902580
 C       -12.3496134965       -2.4369355243        3.2331905162
 C       -13.1624946182       -2.4119894930        1.9764528774
 C       -14.5500201087       -1.6986119403        2.0016500106
 O       -15.2020711554       -1.7289229608        3.0030385925
 C       -15.0662432737       -0.7313931730        0.8970517267
 C       -14.9567983610        0.8327109201        1.3414693205
 O       -14.0088990168        1.5460464978        0.9038430017
 C       -15.8713224735        1.4103416736        2.3579659416
 C       -15.3899022553        2.8204434823        2.9066561953
 C       -15.1364813510        3.8439559958        1.7863803481
 O       -16.0071365964        4.3926015855        1.1853056112
 C       -13.8144444625        4.6762685244        1.8421031763
 C       -12.8204930279        4.3848093251        0.6290995611
 O       -11.7315079957        3.9431963847        0.9778358986
 C       -13.0743942701        4.7010720133       -0.8588009278
 C       -11.8466676058        4.4970510273       -1.7284717292
 C       -11.3935026447        3.0559680886       -1.8871380374
 O       -12.1455928280        2.1555493137       -1.5743812762
 C        -9.7836717982        2.7641771789       -2.1048544713
 C        -9.1089537730        2.8215843967       -0.7209242781
 O        -9.4695853549        1.9410492588        0.0898798824
 C        -8.1777297302        3.8772196883       -0.2295511760
 C        -6.6714865441        3.6087608464       -0.7158220241
 C        -5.7346273623        4.6355466987       -0.1893500352
 O        -5.6455062887        4.8602104454        1.0080430646
 C        -4.6767836223        5.4246615537       -1.1940683142
 C        -5.3912606360        6.3171315213       -2.2968295964
 O        -6.4845548223        6.0923802942       -2.7510583425
 C        -4.6479285673        7.5326495297       -2.7948979966
 C        -5.4840440703        8.2723997096       -4.0094295178
 C        -4.6762705149        9.4385511434       -4.6081294764
 O        -3.5051567852        9.4655916676       -4.3803630004
 C        -5.3086743482       10.4922887307       -5.4143154748
 C        -4.8316526348       10.5161148449       -6.8736312240
 O        -5.1289005484        9.5810767533       -7.6256212823
 C        -3.9715451115       11.6342067143       -7.5041404400
 C        -6.8536992615       10.3081792634       -5.6073010501
 C        -5.0166661704       11.7790735503       -4.5985293633
 C        -3.9559173163        6.3409684787       -0.1386617166
 C        -3.6953434180        4.3358497927       -1.8260293793
 C        -9.8791860780        1.4006841440       -2.8605953601
 C        -9.2173189962        3.7724792410       -3.1607657680
 C       -13.8235361635        6.2637936596        1.7627314404
 C       -13.0531487647        4.4295080013        3.1944517264
 C       -14.3733734170       -0.8274693672       -0.4855940645
 C       -16.5355946205       -0.9902489242        0.6796937795
 C        -9.5403190702       -0.0987879892        4.6599297197
 C        -8.7768770744       -2.0733769484        3.4080775055
 H       -10.2105972187       -4.3342168324        6.2590808337
 H        -8.7341386112       -3.6307846427        5.9222435812
 H        -9.8485265053       -4.5172466119        4.7990968101
 H       -13.0768622183       -2.4346897526        4.1538993810
 H       -11.7631114592       -3.3737146087        3.2458331047
 H       -13.4259957278       -3.3363858227        1.5790741777
 H       -12.6073917577       -2.0817057673        1.1035825072
 H       -16.1675465813        0.6684954396        3.1560871578
 H       -16.8189775047        1.5870179439        1.9041898216
 H       -14.4262173272        2.6938215674        3.4634333594
 H       -16.0125175986        3.3524539844        3.6702980302
 H       -13.4374724761        5.6690885862       -0.9320782599
 H       -13.8541003250        4.0271961218       -1.0294894380
 H       -10.9810850969        4.9021225797       -1.1125722458
 H       -11.9076774662        5.0303788017       -2.5784028429
 H        -8.0513552512        4.0440799463        0.8750627880
 H        -8.5122978829        4.8725747006       -0.7525649066
 H        -6.4726847568        3.5538790070       -1.7886208605
 H        -6.4195528784        2.6615248071       -0.1956750890
 H        -3.5844600555        7.3812689975       -3.2997677531
 H        -4.3824726146        8.2146785792       -1.9459330256
 H        -6.4194561427        8.6617145494       -3.7001910647
 H        -5.5028118078        7.4324527096       -4.8068538699
 H        -3.2207180213       11.9212764304       -6.7886273359
 H        -4.5838260417       12.4610241187       -7.8316266805
 H        -3.4767313796       11.1243785189       -8.3418212151
 H        -7.0333201254        9.2276956899       -5.9106704431
 H        -7.1689591035       10.9585170817       -6.4778385158
 H        -7.5104566836       10.6823405887       -4.8137535326
 H        -5.5876399896       11.7013322285       -3.6644843963
 H        -5.1923503802       12.6889450505       -5.1311248275
 H        -3.9781428193       11.7536312554       -4.2713568962
 H        -3.0389580107        6.6810093661       -0.4699770099
 H        -3.8369384539        5.7220465872        0.7260341012
 H        -4.6112041661        7.2175236946        0.0033044935
 H        -4.1967360033        3.4068268254       -1.8839917390
 H        -2.7379375061        4.2488791631       -1.3563289148
 H        -3.4682613945        4.5885998594       -2.8501166942
 H        -9.9529203664        0.6262458279       -2.0982309866
 H        -9.0431530590        1.2536568233       -3.4822733619
 H       -10.8955741850        1.4476472341       -3.2844081986
 H        -8.8180851983        4.6774066830       -2.7637949607
 H        -9.9076252658        3.9468214145       -4.0331352112
 H        -8.2870079337        3.4594410843       -3.6485584702
 H       -14.3748549205        6.7545935952        2.5989400227
 H       -14.3327777395        6.7895688603        0.8704780242
 H       -12.8460602756        6.6908159332        1.7980102850
 H       -12.0642941729        4.7140849439        2.9376799150
 H       -12.8315531270        3.4222480521        3.5479082834
 H       -13.4458002532        4.9798568071        4.0614198854
 H       -14.7737007121       -1.7567365980       -0.9850127471
 H       -13.2866862951       -1.0215444118       -0.2177631970
 H       -14.4711190143        0.0573556080       -1.1355748885
 H       -16.7017211008       -1.9630275062        0.1987929352
 H       -16.7751311466       -0.1017973791        0.0119301149
 H       -16.9642743656       -0.7907629983        1.6157271252
 H        -8.7277919170        0.3518403073        3.9202948270
 H        -8.9678276034       -0.3172591714        5.5146345547
 H       -10.0917994154        0.7878025474        5.0178119785
 H        -8.3398958718       -1.2546005401        2.7767669917
 H        -9.1199661964       -2.9313276870        2.7834205097
 H        -7.9824764166       -2.6049907326        4.1158952148
 Na      -11.7421414951        1.1882569481        0.4474620054
