117

 C        -9.8273635833       -3.5162148328        5.7894223270
 C       -10.5927906742       -2.2705351088        5.4448866426
 O       -11.3391375063       -1.6819260636        6.2299726789
 C       -10.1685625873       -1.4159470991        4.2713335603
 C       -11.3098947155       -1.3660023700        3.1841492883
 O       -11.1010388536       -0.6411104108        2.2207839472
 C       -12.4711335021       -2.2561376697        3.3171765787
 C       -13.2657890092       -2.5102115917        2.0835321208
 C       -14.5876327837       -1.5441558530        2.2054426485
 O       -15.2807633397       -1.4254872076        3.1646737557
 C       -15.0219332017       -0.6004487700        0.8636636971
 C       -14.9469721911        0.8210250484        1.4407719617
 O       -13.8946562327        1.4929054832        1.2762258585
 C       -16.1377235109        1.6968072489        1.9960928002
 C       -15.7379043630        2.9816804624        2.7847146619
 C       -15.0460861202        4.0015758192        1.8986788004
 O       -15.6287297457        4.4467290229        0.9618032066
 C       -13.5978896324        4.6037968420        2.0064431111
 C       -12.8475731525        4.0345997928        0.8546573701
 O       -11.9811872652        3.2439166235        1.2395548308
 C       -13.0680802208        4.6774961368       -0.5184462234
 C       -11.8122120160        4.6001664934       -1.4827709006
 C       -11.6139113713        3.1294054749       -1.7568582866
 O       -12.5185935165        2.2819790340       -1.7260643452
 C       -10.0472056626        2.6959005067       -2.0614933879
 C        -9.1584311985        2.6344246077       -0.5829564709
 O        -9.3583347161        1.6458066507        0.1312311965
 C        -8.0380261978        3.6864790573       -0.2157578278
 C        -6.6096919312        3.6545588891       -0.7720322394
 C        -5.8414087293        4.7938627707       -0.0786428520
 O        -6.2059472513        5.2122317314        0.9587412872
 C        -4.7903549063        5.6196788223       -1.0502349102
 C        -5.6668964086        6.2543841981       -2.2396648636
 O        -6.8023581749        5.9418721496       -2.5203695236
 C        -4.8522405276        7.3402975234       -3.0780839186
 C        -5.6030623094        8.4436295174       -3.9409340956
 C        -4.4953846039        9.3447089069       -4.9220420716
 O        -3.3809568374        8.9400334270       -5.0122571143
 C        -4.9915768291       10.5960686830       -5.8008548192
 C        -4.2696222801       10.4393891336       -7.3106384462
 O        -4.4739401250        9.4979291194       -8.0509185744
 C        -3.1045754151       11.4886260477       -7.6135848669
 C        -6.6204694346       10.7166055613       -5.9350944960
 C        -4.3930260795       11.8976269258       -5.1695310839
 C        -3.9699583258        6.5852990153       -0.2860589209
 C        -3.7965405629        4.6576848711       -1.7641501557
 C        -9.9022754560        1.2041034750       -2.6925134884
 C        -9.2508971448        3.6099309028       -2.9727358682
 C       -14.0277436763        6.0685571748        2.0822083047
 C       -12.9818143844        4.1779245398        3.3999198979
 C       -14.0573231659       -0.9410834248       -0.2795316928
 C       -16.4757275059       -0.9559679708        0.5109773809
 C        -9.8991445875        0.0467412756        4.7011560608
 C        -8.8118851604       -1.8894922374        3.5953125526
 H       -10.2346665582       -4.1679272882        6.4541069564
 H        -8.7896208136       -3.1827724483        6.1401549995
 H        -9.8133510964       -4.2556354295        4.9111647579
 H       -13.1532899663       -1.7640307338        4.0225247153
 H       -12.1501112076       -3.2717550498        3.5992600239
 H       -13.8124996166       -3.5380471421        2.0519714121
 H       -12.7438066695       -2.6085951433        1.1032766701
 H       -16.9677087793        1.2334043570        2.6133376166
 H       -16.7142690155        1.9982183653        1.0659346068
 H       -15.0882306162        2.7487829261        3.5777257556
 H       -16.5502942087        3.4987640841        3.2145926182
 H       -13.2478354198        5.6871176814       -0.1726803342
 H       -14.0186981872        4.2789944298       -0.9709623286
 H       -10.8965157883        4.9638210918       -0.8766205817
 H       -12.0205705399        5.1436611939       -2.4205415768
 H        -7.8710719536        3.5240308576        0.9089467724
 H        -8.3550378818        4.7552983209       -0.2249029247
 H        -6.7076478658        3.8720100490       -1.8453092465
 H        -6.0519667581        2.7177210972       -0.6237091484
 H        -4.2371340851        6.7704673664       -3.7418741484
 H        -4.2275572051        7.9780782448       -2.4395615342
 H        -6.1502017654        8.9744625246       -3.2057111547
 H        -6.2501323917        8.0455689535       -4.7646398464
 H        -2.2851940278       11.0547785260       -7.1591678174
 H        -3.3466320574       12.5166650878       -7.3258119417
 H        -2.8966796829       11.4525527181       -8.7405991439
 H        -6.9314104060       10.0285957584       -6.7150376884
 H        -7.0591038174       11.6703414804       -6.0936657058
 H        -7.0958767040       10.4627191421       -5.0444511508
 H        -4.6686174722       12.1842514737       -4.1648847920
 H        -4.6715463207       12.7354011432       -5.8143963737
 H        -3.2475378232       11.7815040298       -5.0635753812
 H        -3.3782785784        7.0885855120       -1.0573277092
 H        -3.2436105405        5.9649905650        0.2430539245
 H        -4.5429786123        7.3936019912        0.2486172845
 H        -4.3054622931        4.0431843687       -2.5893824330
 H        -3.4095075595        4.0557881905       -0.9478333066
 H        -2.9313785657        5.1183752248       -2.3162873741
 H       -10.6124288377        0.5070911581       -2.2431165305
 H        -8.9163264710        0.9822702959       -2.3144792927
 H        -9.8748915055        1.2718851599       -3.8511150828
 H        -9.8888306564        4.0871289652       -3.7774525212
 H        -8.5179231985        2.9766532407       -3.5940077351
 H        -8.7832313270        4.5314752305       -2.6398445408
 H       -14.4625670110        6.2798198149        3.0202619099
 H       -14.8069745187        6.4819220897        1.3899559945
 H       -13.3074318788        6.8059916780        1.9613053480
 H       -12.0026432589        4.6664477394        3.6953068540
 H       -12.8999315385        3.1146440360        3.5010607769
 H       -13.6608325739        4.4720818935        4.2261143378
 H       -13.9210129769       -2.0264691382       -0.2649399052
 H       -13.1967325904       -0.3505381313       -0.1001049349
 H       -14.3696316272       -0.6732010939       -1.2126811892
 H       -16.3247472501       -1.9612062373        0.1175471449
 H       -16.7532408327       -0.1606402774       -0.1572683597
 H       -17.1551705828       -0.8038865449        1.3361291006
 H       -10.0538001826        0.8465097843        3.8812197967
 H        -8.9937239855        0.3299081541        5.0798203790
 H       -10.5796177164        0.3405495439        5.4562271072
 H        -8.7505196910       -1.3916724337        2.6788298025
 H        -8.6449965585       -2.8962240250        3.3927571840
 H        -7.9778613561       -1.5724206082        4.2447673506
 Na      -11.6343880964        1.0288498530        0.5875151376
