117

 C        -9.8891756708       -3.4443190855        5.8777870750
 C       -10.5516273534       -2.1042100178        5.6323495637
 O       -11.5639567332       -1.7714845881        6.2973063927
 C       -10.1804795093       -1.2293870851        4.2629454153
 C       -11.2976059546       -1.4029080935        3.0366927298
 O       -11.0750443699       -0.6350821028        2.0663908079
 C       -12.5631107085       -2.1354222737        3.3905182913
 C       -13.5533612032       -2.4883701208        2.1623818236
 C       -14.6750335989       -1.5332136366        2.1981728820
 O       -15.0874172333       -1.3069419589        3.3162732687
 C       -15.0435942085       -0.6250941995        0.9129970276
 C       -14.9675059030        0.9557295573        1.3486398074
 O       -13.8613489243        1.4703273956        1.5579855607
 C       -16.2311572149        1.6343692036        1.8268749215
 C       -15.6884554135        2.7946423852        2.6472503213
 C       -15.0832183956        3.9498130582        1.7626601149
 O       -15.5652697286        4.2963092198        0.7112099641
 C       -13.7676193400        4.6452210814        2.2681699644
 C       -12.7413732510        4.1004122610        1.0505554996
 O       -11.9715339704        3.1406929956        1.1510100337
 C       -12.9302740423        4.7537326302       -0.3196712508
 C       -11.7945176398        4.3880720427       -1.2913549960
 C       -11.4318843418        3.0027621312       -1.6264652345
 O       -12.2939008589        2.1739081079       -1.7091945997
 C        -9.9003614797        2.6174111339       -1.9539731451
 C        -9.0794457833        2.6245037882       -0.6015905231
 O        -9.2761223212        1.6065905677        0.1450155372
 C        -8.2787029052        3.7249803592       -0.1748532446
 C        -6.8340651856        3.7201886797       -0.8313142002
 C        -5.9942766488        4.9176324812       -0.3609952328
 O        -6.1468232764        5.4592341937        0.7988694271
 C        -4.8446337638        5.6057478946       -1.1564204571
 C        -5.6866164027        6.4745494975       -2.4063154477
 O        -6.8473231096        6.1268068128       -2.4983472694
 C        -4.8514287037        7.4166604483       -3.2536523033
 C        -5.5695495759        8.5601025603       -4.0675484834
 C        -4.5540617854        9.1847599229       -5.0235439056
 O        -3.4530627069        8.7152923794       -5.0922397284
 C        -4.8334997466       10.5421159539       -5.9085966926
 C        -4.0750428534       10.3615899658       -7.2949313624
 O        -4.3832381347        9.4801144494       -8.0958408737
 C        -2.8955331920       11.2973018322       -7.6477284580
 C        -6.3306147127       10.6204267280       -6.0249821231
 C        -4.2063809959       11.7307782585       -5.1182242917
 C        -4.1756643762        6.7135121386       -0.1713658873
 C        -3.8247684082        4.5922086870       -1.8349237222
 C       -10.0756009025        1.2193444170       -2.6350462337
 C        -9.3987004396        3.6795711201       -2.8480759546
 C       -13.8991198006        6.1776922988        2.3104952756
 C       -13.0753507495        4.0998152510        3.5285492833
 C       -14.0729967990       -0.8566948565       -0.2566117446
 C       -16.5413125353       -0.9775924395        0.4244391663
 C       -10.0807186092        0.1954962381        4.6032497703
 C        -8.7940329876       -1.8016209518        3.6025460370
 H       -10.3324476442       -3.9473103154        6.7584124933
 H        -8.8784592954       -3.3173123561        6.1133318637
 H       -10.0853826883       -4.1958568786        5.1395967391
 H       -13.0930904719       -1.3438731807        4.0937270221
 H       -12.3495605649       -3.1292321307        3.7747273500
 H       -13.9425447273       -3.4619224569        2.1755101807
 H       -13.0407018864       -2.4944311084        1.1470011025
 H       -17.0707529198        1.0121126993        2.3618650859
 H       -16.8036069801        2.0463143677        0.9781426331
 H       -14.8196737446        2.4897008227        3.2610576419
 H       -16.3625621815        3.3202843083        3.3063865731
 H       -13.1451681465        5.7601576149       -0.2483603631
 H       -13.7147068283        4.2303703888       -0.7051522592
 H       -10.8408573817        4.9469554233       -0.9996418194
 H       -12.2253920747        4.7343420383       -2.1728682424
 H        -8.1307990996        3.5700456655        0.9325349025
 H        -8.9015641300        4.7549036961       -0.1846115789
 H        -6.9702539810        3.7562499483       -1.9417870760
 H        -6.2638154283        2.7857805769       -0.5444100578
 H        -4.4251120476        6.7659030752       -4.1597060325
 H        -4.0413812231        7.8258650627       -2.6215690577
 H        -5.8152200895        9.3480240986       -3.4023904242
 H        -6.5522646520        8.0899989442       -4.4808604108
 H        -2.0235258969       10.8419797878       -7.0887639824
 H        -3.1163267873       12.3359354533       -7.5012055942
 H        -2.6916252325       11.1279990672       -8.6515429621
 H        -6.7866718669        9.7588244205       -6.5496875033
 H        -6.7298929831       11.5680219177       -6.4548498669
 H        -6.7531764925       10.7265598126       -5.0173571219
 H        -4.9213434286       12.0482417934       -4.2682496527
 H        -4.1565709169       12.6819908154       -5.6803813499
 H        -3.3319239959       11.4796570973       -4.6070632996
 H        -3.5190485634        7.4763929264       -0.5563706511
 H        -3.6898871140        6.0892601540        0.6034519192
 H        -5.0929453995        7.2475180543        0.1949684618
 H        -4.0564737809        4.3678403884       -2.8248614514
 H        -3.7822951463        3.6768001970       -1.2012416254
 H        -2.8545274709        5.0060662854       -1.9231511913
 H       -10.9808670009        0.6464947249       -2.1746507065
 H        -9.1149833735        0.6633775510       -2.5127674084
 H       -10.1843544404        1.5192835116       -3.6546865458
 H        -9.6821546857        3.5078831051       -3.8616145164
 H        -8.2586951001        3.6856315685       -2.9975946847
 H        -9.7771980863        4.7600990841       -2.7459782605
 H       -14.6521397608        6.4606867944        3.0514654260
 H       -14.3922544738        6.5609527708        1.4480850793
 H       -13.1173055867        6.8807409264        2.4420519828
 H       -12.3714931776        4.8595458634        3.7737261717
 H       -12.5296787612        3.1595676878        3.2234209368
 H       -13.4966287349        3.8960490168        4.5266364571
 H       -14.1426545305       -1.8973372062       -0.4232975234
 H       -13.0925799220       -0.4370007817       -0.0722408100
 H       -14.3270802825       -0.3543495034       -1.1982288196
 H       -16.5317490991       -1.9609998258       -0.0220206876
 H       -16.5716184403       -0.0622061990       -0.2152199101
 H       -17.2782389263       -0.7656973055        1.1087382341
 H       -10.2309602819        0.9754226987        3.8659850215
 H        -9.0523055230        0.4480645226        4.8596372777
 H       -10.6531140127        0.5752530844        5.4922622282
 H        -8.6466038309       -1.3623674885        2.5991858965
 H        -9.0781120160       -2.8107590339        3.2687026010
 H        -7.8008248835       -1.8881644362        4.1439639287
 Na      -11.5311940348        0.9142952960        0.6168009453
