117

 C       -12.6263058962       -1.1431324777       -9.0401345797
 C       -11.6654656984       -1.3324348185       -7.7868612682
 O       -11.5944660338       -2.3522480466       -7.1659597744
 C       -10.7052501164       -0.2072416015       -7.4046987248
 C       -11.0550656286        0.0430288809       -5.8755874283
 O       -11.4380266236        1.1413007703       -5.6017731944
 C       -10.5077865366       -0.9221096230       -4.7736961250
 C       -11.0691884136       -0.7079304596       -3.4012008130
 C       -10.1802623588       -1.3379263765       -2.3160455039
 O        -9.8889454223       -2.5184566473       -2.3097615432
 C        -9.8879712207       -0.6578066080       -0.9182393681
 C       -11.0086581240        0.3885762874       -0.4968185811
 O       -11.3893813588        1.3386531166       -1.2025174948
 C       -11.7702480199        0.2282583357        0.8884302233
 C       -13.0769031137        1.1398940016        0.8184636220
 C       -12.6042198541        2.5856302235        1.2998917987
 O       -11.6351198976        2.6235047490        2.0205355934
 C       -13.3974850421        3.8081598668        0.8258621602
 C       -13.1243741490        5.1328864995        1.6447393670
 O       -12.1995917437        5.3536266876        2.3751804745
 C       -14.1339801419        6.2784123042        1.3072341752
 C       -13.6238624120        7.6715533993        1.8144446843
 C       -12.1442412690        8.0852455972        1.4248451757
 O       -12.0018361986        8.1049239284        0.2345729233
 C       -11.0598228817        8.5123181352        2.5500763497
 C        -9.8208211013        7.7075080487        2.1020433793
 O        -9.6220456771        6.6070205336        2.6000763196
 C        -9.0558075750        8.2438158380        0.8636264966
 C        -7.5937035964        7.8879019706        0.7340603044
 C        -6.7910866029        8.3563001884        1.9749937716
 O        -7.2911417682        8.9319796953        2.9225456403
 C        -5.2829590634        7.7568105236        2.0746794885
 C        -5.4406720425        6.3264558739        2.6120709644
 O        -5.4699638402        5.4038272774        1.8046241938
 C        -5.5919485340        5.9221427695        4.0992654366
 C        -5.7389551294        4.4020457198        4.2519223078
 C        -6.9835621957        3.7692716683        3.5462398891
 O        -8.1009702937        4.2225380925        3.8436234178
 C        -6.8636833580        2.7276862156        2.3147832206
 C        -7.4905546579        3.4826697008        0.9846110923
 O        -8.5670885752        4.0439338038        1.0373210628
 C        -6.6624508584        3.4453886526       -0.2236258522
 C        -5.3645395666        2.3301452603        1.9672459859
 C        -7.7462016280        1.5699490427        2.5998734807
 C        -4.4479449387        7.6953199401        0.8255962079
 C        -4.4164601066        8.5570205689        3.0834706830
 C       -10.9986656414       10.0367825298        2.6347932067
 C       -11.5455510489        7.9285202506        3.9195853864
 C       -12.9612755198        4.1043270229       -0.6187427645
 C       -15.0557770921        3.6442134442        0.7821021089
 C        -9.5026191407       -1.7016474409        0.1711708813
 C        -8.6745164187        0.1914867705       -1.1729239697
 C        -9.2842603065       -0.7041191196       -7.7551146087
 C       -10.9635316815        1.1227737419       -8.1992237052
 H       -13.5232974270       -1.6946670973       -8.9030379698
 H       -11.9495648900       -1.5013739293       -9.8631432216
 H       -12.8934844105       -0.0567866230       -9.2721540404
 H        -9.3867724195       -0.7067702149       -4.7964774882
 H       -10.5788818216       -1.9441951821       -5.0253203502
 H       -11.9906684605       -1.3261884978       -3.2343394975
 H       -11.1124625105        0.3496550376       -3.3152571138
 H       -11.1249709424        0.3321160772        1.7646472975
 H       -12.1647252445       -0.7721888849        0.8450614740
 H       -13.7498946594        0.6424889946        1.5727705720
 H       -13.4188339684        1.1473603171       -0.1790699848
 H       -15.1402511523        6.1445197967        1.6406351633
 H       -14.2459132564        6.2013534901        0.1385641465
 H       -13.7982290217        7.8491181688        2.8956342372
 H       -14.3233717244        8.3866214599        1.3797421155
 H        -9.2410511635        9.3285858586        0.9064005611
 H        -9.6764352340        7.9479242375        0.0003348577
 H        -7.1351331857        8.1688840502       -0.2116766776
 H        -7.5043442920        6.7817000622        0.8616962554
 H        -6.5019467860        6.4614681710        4.5491274535
 H        -4.7282254440        6.4232245244        4.7220123039
 H        -5.7449529502        4.0500953770        5.3233233232
 H        -4.7976715419        3.9391833436        3.8520104204
 H        -5.7869211508        2.8890683045       -0.2989327425
 H        -6.2397077322        4.4142562413       -0.4749835630
 H        -7.2009181658        3.1057353236       -1.1002359504
 H        -4.9207288606        1.7859540236        2.9011283106
 H        -4.7549400121        3.1285420147        1.7089091065
 H        -5.3644423858        1.6522462746        1.1267513814
 H        -8.7954827794        1.9890709685        2.8183672732
 H        -7.4858253043        0.9070428689        3.4462352993
 H        -7.7902550872        0.8693469253        1.8196090838
 H        -4.3615759899        8.7411724990        0.5538040660
 H        -4.8177957193        7.1786480587       -0.0163705258
 H        -3.3732975613        7.4697754550        1.0312195264
 H        -3.5469773965        8.0042811106        3.3602803942
 H        -5.0269343785        8.6184791031        3.9628946782
 H        -4.0832109745        9.5160745035        2.7982823714
 H       -11.8237452618       10.3453920400        3.2829606208
 H       -11.1261122573       10.5137669107        1.6540545000
 H       -10.0740000994       10.4464899802        3.0990190394
 H       -11.9309851792        6.9505434570        3.9279531084
 H       -12.2745041307        8.6571433117        4.3573691839
 H       -10.7838629807        8.0190124215        4.7134907328
 H       -11.9167407934        4.4419352027       -0.5464173220
 H       -13.5185270005        4.9064965347       -1.1920458459
 H       -13.0252879045        3.1711121032       -1.0790808667
 H       -15.2429163687        2.5995333243        0.4372902575
 H       -15.4697652498        4.4360135135        0.1376622590
 H       -15.2744179184        3.6579840170        1.8271208677
 H        -8.6676416208       -2.2409600044       -0.1719256312
 H       -10.2738714525       -2.4344042710        0.3901699723
 H        -9.1690402389       -1.2159873973        1.0224833955
 H        -8.8864865071        1.1632441428       -1.5608575327
 H        -8.0216705918       -0.3212889771       -1.8680662285
 H        -7.9903506690        0.1688291374       -0.3190137453
 H        -9.0563922936       -1.8042334668       -7.5733324204
 H        -8.5069905556       -0.1876277119       -7.1784411555
 H        -9.1083191781       -0.5754746422       -8.8356120045
 H       -11.9540082367        1.4652378947       -7.8306401962
 H       -10.9582225291        0.9088549128       -9.2532603055
 H       -10.1969711836        1.7981858488       -7.9258056111
 Na       -9.9368248267        4.0761690028        2.8014309216
