117

 C        -9.9552237410       -3.0109544900        6.2401131011
 C       -10.7910546143       -1.8686295498        5.5765810317
 O       -11.7351440505       -1.4055553118        6.1565150442
 C       -10.4489577248       -1.0967152960        4.2415611091
 C       -11.5623466532       -1.4219683996        3.1053165036
 O       -11.3202172241       -1.1065082408        1.9276516899
 C       -12.7344494925       -2.1925489696        3.6019405659
 C       -13.7201281896       -2.5730833962        2.3392154098
 C       -14.7136996050       -1.4061498199        2.1816671796
 O       -15.2889232672       -1.1937269228        3.2543998219
 C       -15.0679552705       -0.6038790382        0.8783487753
 C       -14.9366861058        0.9220322610        1.3579493975
 O       -13.8724600693        1.5152017392        1.4285419892
 C       -16.1790352059        1.5889713174        1.8036739033
 C       -15.8991168197        2.9102336419        2.4036077620
 C       -14.9168994721        3.6622369120        1.6339926288
 O       -15.4093381323        4.1572813895        0.6369465715
 C       -13.6742558789        4.2930178781        2.3531946797
 C       -12.3975549090        4.0914938655        1.4086685490
 O       -11.5083183746        3.3796106562        1.7786110606
 C       -12.5211521784        4.7354236834        0.0981550032
 C       -11.6291191939        4.4572798797       -1.1592417375
 C       -11.3237712221        2.9744348451       -1.3615971770
 O       -12.0534797161        2.1177843983       -1.0040803858
 C        -9.9559269210        2.5452897639       -1.9226743889
 C        -9.1285961778        2.5852140393       -0.6556658283
 O        -9.3451966865        1.7522354967        0.2328543769
 C        -8.3534804185        3.8106993194       -0.2911250188
 C        -6.9396156347        3.9824125750       -0.8947740616
 C        -6.4225279875        5.4459328270       -0.4583117133
 O        -6.7383880032        6.0020154474        0.6422287963
 C        -5.1931835798        5.9713724283       -1.3472249493
 C        -5.8450875065        6.7537633924       -2.5410795797
 O        -7.0468676152        6.9053623254       -2.4732803137
 C        -4.8344991826        7.1810816525       -3.6515179260
 C        -5.1766081038        8.4110636761       -4.4403117261
 C        -4.1657829595        8.8295118332       -5.4418988605
 O        -3.2656846707        8.0534222203       -5.7405234750
 C        -4.3435169779       10.2892074814       -6.1118603462
 C        -3.5217027891       10.0027580969       -7.4582679901
 O        -3.9786290707        9.4250441714       -8.3964632187
 C        -2.0760502215       10.5264382765       -7.5501764815
 C        -5.9155564533       10.6023840621       -6.1309480740
 C        -3.6899824031       11.2936357276       -5.2017892238
 C        -4.4574722616        7.0206722516       -0.3428353876
 C        -4.3747226439        4.8376296412       -1.8799022166
 C       -10.0671332786        1.1254957238       -2.4688562459
 C        -9.6579532883        3.5055975117       -3.1000410626
 C       -13.9335016530        5.8145118791        2.4860813901
 C       -13.2844218788        3.7034182171        3.7473375810
 C       -14.2029153991       -1.0213822179       -0.3947500505
 C       -16.5703969362       -0.9782549250        0.5566502672
 C       -10.5476759012        0.4762715267        4.4521465675
 C        -9.0235602935       -1.3815023094        3.7145495079
 H       -10.2735204983       -3.3574143595        7.3114009940
 H        -8.9860813519       -2.6227500290        6.4575869366
 H        -9.7745795920       -3.8663648036        5.6043323319
 H       -13.3701832515       -1.5034846597        4.2662442449
 H       -12.4119302537       -3.1265783393        4.0091549265
 H       -14.3843931451       -3.4103551687        2.5279340024
 H       -13.1260022663       -2.8709767368        1.3783933070
 H       -16.8410050068        1.0826367571        2.6214884814
 H       -16.8976697317        1.6871576377        0.9386772365
 H       -15.4323701787        2.7971955719        3.3566937511
 H       -16.7247982723        3.5482727343        2.4750735846
 H       -12.4460913336        5.8090072206        0.2491131131
 H       -13.5576102422        4.5390739213       -0.1244043115
 H       -10.7515896846        5.1777758355       -1.0793821817
 H       -12.2317082355        4.8516632836       -2.0138324869
 H        -8.2619341480        3.8682021100        0.8207425597
 H        -9.1936335934        4.5912390807       -0.5327135818
 H        -6.8896010038        3.9455385333       -1.9921552722
 H        -6.2406221610        3.1904488896       -0.5461891342
 H        -4.9328273977        6.2113712981       -4.2436960988
 H        -3.8478410806        7.3258906176       -3.2519300261
 H        -5.3256644513        9.1269253611       -3.6736253086
 H        -6.1893513062        8.4431401712       -4.8597474264
 H        -1.5519128138       10.4959818336       -6.5233617011
 H        -2.1657044378       11.5207364211       -7.9741392696
 H        -1.5331167478        9.9327787076       -8.2234858023
 H        -6.4019090866       10.0802942261       -6.8907928574
 H        -6.1457894196       11.6198731534       -6.3335022065
 H        -6.3432900099       10.2461269114       -5.2165007642
 H        -4.1785183360       11.3521151009       -4.1556762896
 H        -3.7205786791       12.3262852470       -5.6069813053
 H        -2.7108411601       10.9894366170       -5.0630495225
 H        -3.4902167165        7.2641006199       -0.7856596275
 H        -4.3926561132        6.6883034372        0.7338041685
 H        -5.1208241541        7.9036306700       -0.4298347459
 H        -4.8713192220        4.2943673514       -2.7160395904
 H        -4.1486354266        3.9515354398       -1.1817400926
 H        -3.5017910737        5.3409885059       -2.3531356635
 H        -9.9445796622        0.5149134157       -1.5175172316
 H        -9.2500483031        1.1148891250       -3.1995625599
 H       -10.9162312272        0.9234744883       -3.0313405398
 H        -8.5766652718        3.6436267167       -3.3293867697
 H       -10.0523675741        4.4912942917       -2.8338085342
 H       -10.3551229522        3.3056803963       -4.0255821299
 H       -14.4943254578        6.1084108231        3.3696607339
 H       -14.5414950489        6.1181001304        1.7232572304
 H       -13.1692586365        6.5834755489        2.3762297088
 H       -12.2472008057        3.7752762969        3.9201516919
 H       -13.5830323569        2.6347884953        3.8507891024
 H       -13.6517242397        4.1773557303        4.6470039156
 H       -14.5630756959       -1.9698706832       -0.6086757563
 H       -13.1757255912       -1.1381062269       -0.0970936004
 H       -14.2270878826       -0.4484268052       -1.3232038410
 H       -16.6239646264       -2.0449597378        0.3780944863
 H       -16.7829078501       -0.2301415610       -0.2469822137
 H       -17.1181929207       -0.7982061190        1.4602503360
 H       -10.1404417952        1.0738298095        3.7558408873
 H        -9.7711204295        0.7118612834        5.2439510659
 H       -11.4783053198        0.9917900652        4.7303078519
 H        -8.9290141974       -1.1215572888        2.6964115026
 H        -8.7335993760       -2.3999961150        3.8643295735
 H        -8.3098503182       -0.8132172870        4.1901648127
 Na      -11.4862724134        0.9040277392        1.0186903819
