117

 C        -9.8646324000       -2.6149058058        6.1799521331
 C       -10.9031523521       -1.5963333672        5.6772781467
 O       -11.9099592799       -1.1689921849        6.3202662822
 C       -10.5965980280       -0.9033079828        4.2473584899
 C       -11.5395599298       -1.5971937711        3.1860005160
 O       -11.4964763517       -1.1524258359        2.0568523933
 C       -12.7375595784       -2.5492150896        3.5216441495
 C       -13.7478818218       -2.6670303698        2.3752004914
 C       -14.8327497698       -1.5836291582        2.3718585468
 O       -15.5140755468       -1.4131582339        3.3356579478
 C       -15.1092088125       -0.6686199853        0.9984672248
 C       -15.1037577909        0.8384647767        1.3314605395
 O       -14.0448242216        1.4077433478        0.9702591454
 C       -16.3226342534        1.5119181618        1.8699239225
 C       -15.9150854856        2.8695948193        2.5631727663
 C       -14.9453553460        3.7334962181        1.7940358536
 O       -15.2713257171        4.0676111415        0.6752626702
 C       -13.6348750702        4.2535744485        2.5063114127
 C       -12.4824494821        4.1357774625        1.4747204172
 O       -11.4582945414        3.4455442739        1.5607745587
 C       -12.4684574457        4.9772975504        0.0920917244
 C       -11.5632398715        4.4193854141       -1.1088441931
 C       -11.4642585320        2.9669522783       -1.3502721848
 O       -12.3474146292        2.2676868088       -0.7396688309
 C       -10.0715767753        2.4879971387       -1.8823064249
 C        -9.2340128255        2.6689929303       -0.5713561377
 O        -9.2280786874        1.7809169106        0.2441766475
 C        -8.4033726151        3.9711504143       -0.1278860068
 C        -7.0982376548        4.1817674182       -0.7852903949
 C        -6.4599932291        5.5157632589       -0.3694048898
 O        -7.0472867443        6.2751180276        0.3568239243
 C        -5.1196788240        6.0574200169       -1.2171434973
 C        -5.8216505942        6.7907525337       -2.5610157180
 O        -6.9833337970        7.2442287535       -2.5969382380
 C        -4.9694511471        6.8946115071       -3.8661179736
 C        -5.2079423279        8.3270946161       -4.5843787409
 C        -4.1187362450        8.6525995187       -5.5521882436
 O        -3.2839087674        7.8305468187       -5.7958397556
 C        -3.9856565298       10.0593479590       -6.2580927322
 C        -3.2648298161        9.8270801243       -7.5589261742
 O        -3.9037759133        9.7688559332       -8.6255003553
 C        -1.7113838729       10.1359510923       -7.6227124913
 C        -5.4351139955       10.6838883755       -6.6914153405
 C        -3.2927050925       11.1546151298       -5.4076438094
 C        -4.3953652078        7.0690299101       -0.3887662632
 C        -4.0645462221        4.8770721658       -1.5781115451
 C       -10.2962033990        0.9838280329       -2.4185384033
 C        -9.3991598597        3.2311749180       -3.0183676661
 C       -13.8244895797        5.7087347266        2.6709832708
 C       -13.2398911029        3.4763157762        3.8008521548
 C       -13.9778917582       -0.9584027906       -0.1267042295
 C       -16.5925795008       -1.1008355066        0.4045494504
 C       -10.9217713718        0.5040087213        4.3256346391
 C        -9.1962989335       -1.2929620239        3.6639685772
 H       -10.3172915629       -3.2539175562        6.8623935186
 H        -9.0829134450       -2.2487195998        6.8427299143
 H        -9.3072612495       -3.1384806173        5.3796709722
 H       -13.3488863543       -2.0789839104        4.2480534263
 H       -12.4643741745       -3.6169559521        3.7430046068
 H       -14.3383421210       -3.5933572069        2.2936032515
 H       -13.1941477475       -2.5932802732        1.4923500345
 H       -16.7269714873        0.9940842113        2.6722286719
 H       -17.1090807475        1.5729655096        1.1395925964
 H       -15.6545742517        2.7035946708        3.6444371859
 H       -16.7019693763        3.7095695965        2.4539988773
 H       -12.3099878017        6.0354026582        0.1846117253
 H       -13.5035738395        4.8955334942       -0.2451678252
 H       -10.6564734284        5.0317393241       -1.3859381567
 H       -12.1495247481        4.6962119692       -1.9594197982
 H        -8.2848494306        3.7664261590        0.9196844651
 H        -9.0221085513        4.8234474941       -0.1941829082
 H        -7.1506345563        4.2468333617       -1.9088364413
 H        -6.2626048212        3.4765012571       -0.6074971803
 H        -5.2424186104        6.1297708341       -4.6161123236
 H        -3.8721858242        6.8445553134       -3.5670431551
 H        -5.5110603141        9.1384276829       -3.8298739711
 H        -6.1435659685        8.4376330411       -5.1614395892
 H        -1.1141294310        9.5759438406       -6.9730303594
 H        -1.7288561703       11.1966280895       -7.3552346579
 H        -1.3689565764       10.1107725365       -8.6800714786
 H        -6.0424087970        9.9717495812       -7.3383220162
 H        -5.2387265162       11.4602775864       -7.4375839439
 H        -6.0930858237       10.8839940956       -5.8478157720
 H        -3.9146076472       11.5699324320       -4.6627592777
 H        -2.7674961426       11.9294668263       -5.9824388498
 H        -2.4573772502       10.5436871032       -4.9107066197
 H        -3.7129677184        7.4508501417       -1.1330910236
 H        -3.8240223365        6.5412868896        0.3630992333
 H        -5.0292062163        7.8049970771        0.1508277944
 H        -4.3263682792        3.8455917913       -1.4560245869
 H        -3.1501888440        4.9861253407       -1.0472015353
 H        -3.7093821741        5.1145068092       -2.5349014765
 H       -10.8618702283        0.6027263700       -1.6094420427
 H        -9.4634595783        0.4129642691       -2.8237435390
 H       -10.9726877686        1.1783809896       -3.3191531255
 H        -8.4101778340        3.2314056640       -2.7985637255
 H        -9.7233368982        4.2801690660       -3.1912653651
 H        -9.5703835280        2.7335390111       -3.9077207494
 H       -14.6727823154        6.0720269802        3.2236116586
 H       -13.8152955849        6.3205038260        1.6899877744
 H       -13.0347985150        6.2021135022        3.1852431989
 H       -12.4597805529        3.9961666077        4.4600318474
 H       -12.7635664707        2.5306467577        3.5554081955
 H       -14.0144605484        3.1989171033        4.5451123823
 H       -13.3537669732       -1.9436186624       -0.1712707887
 H       -13.1686398033       -0.1521819117       -0.1852088335
 H       -14.5080117074       -0.9325329844       -1.0839090626
 H       -16.3728404936       -2.0779618254       -0.0220688594
 H       -16.8208397120       -0.4162375125       -0.4073011893
 H       -17.2691824803       -1.2551124074        1.2302720246
 H       -11.0083225543        1.1208475770        3.3201342302
 H       -10.2964346327        1.1600122659        4.8742406464
 H       -11.9343252628        0.6119149792        4.7765098080
 H        -8.8653829026       -0.8495581396        2.6872987089
 H        -9.0796301744       -2.3941480539        3.7356621104
 H        -8.3359142879       -0.9314228275        4.3958975238
 Na      -11.5058785302        1.2226128424        1.3046829425
