117

 C        -9.9126651507       -2.2365020272        6.4011614304
 C       -11.0707170509       -1.3666207343        5.7227257282
 O       -12.0910949712       -1.1974412264        6.3773117022
 C       -10.8591189180       -0.7767809320        4.2474379886
 C       -11.8731080644       -1.2785515055        3.1623349377
 O       -11.9778269205       -0.7581719820        2.0799239483
 C       -12.7358130591       -2.4998039035        3.5456790547
 C       -13.8715391783       -2.8246944663        2.5188935682
 C       -14.8125861326       -1.7155613444        2.3384765745
 O       -15.5824558751       -1.3488736113        3.2137431640
 C       -15.0006944813       -0.8792560681        0.9357115939
 C       -15.0174244472        0.5886925181        1.4517746885
 O       -13.9027540140        1.0784112132        1.5746316289
 C       -16.2417888173        1.3595130992        1.9158125868
 C       -15.7988070026        2.6337608714        2.7492024635
 C       -14.8879314600        3.5878454963        1.7649321125
 O       -15.4244557753        4.0010931209        0.7427153295
 C       -13.4805830642        4.2483377148        2.4729691076
 C       -12.5130777492        4.3547531413        1.2827470127
 O       -11.4537833739        3.7484770102        1.4189345905
 C       -12.8728370899        5.2126306881       -0.1070159241
 C       -11.7667275445        4.6871705600       -1.1024826682
 C       -11.5362591988        3.1823720817       -1.0095070487
 O       -12.4550214149        2.3395848868       -0.9576866673
 C       -10.1701334842        2.5352753610       -1.5124776607
 C        -9.1215652333        2.7598893668       -0.3080410197
 O        -9.1415371718        1.8727033234        0.5593549747
 C        -8.3660071567        3.9625253120       -0.0050190382
 C        -6.9431786309        4.0571309523       -0.6919846534
 C        -6.5365237328        5.5281014952       -0.5185852194
 O        -7.1615220396        6.3373261629        0.0873208328
 C        -5.2509506686        6.1369551541       -1.3491167083
 C        -5.7631400438        6.9432773336       -2.7142628983
 O        -6.8502524778        7.5437386443       -2.7005008288
 C        -4.8118977707        7.0718410816       -3.8857284067
 C        -5.0469314460        8.2854876393       -4.8481478633
 C        -3.8484070308        8.4008839965       -5.8335815424
 O        -2.9780063307        7.5855594678       -6.0228226254
 C        -3.8342109206        9.8242808480       -6.5269194411
 C        -2.8773520926        9.6730887097       -7.9252929074
 O        -3.2810801710        9.9988576877       -9.0319709984
 C        -1.4609655279        9.0965943068       -7.7308345262
 C        -5.1089553066       10.5432758539       -6.6260669443
 C        -2.9483126942       10.6343867626       -5.4802409759
 C        -4.7048540338        7.3514005464       -0.5530064014
 C        -4.0248423144        5.1821939967       -1.5862319335
 C       -10.4589493144        1.0367351600       -1.8407069430
 C        -9.7107876694        3.2849041900       -2.7500947161
 C       -13.8960367602        5.6556578239        2.9957252079
 C       -12.9639334660        3.3596758895        3.5980617915
 C       -13.9317570502       -1.1006555657       -0.1539717029
 C       -16.5340725235       -1.3485232952        0.4502599059
 C       -11.1670626051        0.6412817983        4.4694691042
 C        -9.4727377759       -0.9637139981        3.7227282184
 H       -10.1997846826       -2.5503681268        7.3379895598
 H        -8.9465828187       -1.6736762123        6.5840316993
 H        -9.4884158917       -2.9856407127        5.7289766691
 H       -13.3679377433       -2.4023673377        4.4784371799
 H       -12.1167256134       -3.4702456267        3.5911718030
 H       -14.5139611475       -3.5640597870        3.0788948295
 H       -13.4442762051       -3.2496849333        1.6806207168
 H       -16.9312136697        0.7262677276        2.5003928776
 H       -16.8992989719        1.9241377918        1.1254918960
 H       -15.3369215728        2.5250964135        3.6772444236
 H       -16.6967750292        3.2426772838        2.8669977487
 H       -12.9105969182        6.2701975710        0.0890532038
 H       -13.8181968813        4.9912332168       -0.5672756168
 H       -10.8572538947        5.1810273992       -1.0932653098
 H       -12.0161468271        4.9254571091       -2.1390516890
 H        -8.1696548632        3.9062834719        1.1507290118
 H        -8.9617936821        4.8908971984       -0.2499772468
 H        -6.9253189545        4.0390575345       -1.7880491259
 H        -6.1702329408        3.3471092565       -0.3242691568
 H        -4.5964958819        6.1883556579       -4.5279100606
 H        -3.7466310511        7.2256747766       -3.4286752608
 H        -5.2423504573        9.2653260090       -4.2736434928
 H        -5.8844849195        8.2779722480       -5.4404565267
 H        -1.4636439282        8.0785516167       -7.5333498539
 H        -1.0265302477        9.6457706715       -6.8964424682
 H        -0.9682084812        9.3235825371       -8.7383606774
 H        -5.8256467185       10.1437362948       -7.3094527128
 H        -4.7991953042       11.4820625810       -7.0245848669
 H        -5.5847729744       10.6825346891       -5.6627465053
 H        -3.4129440565       10.4194561909       -4.5668630916
 H        -3.0744455388       11.6810399619       -5.6960470061
 H        -1.8158952531       10.4263097477       -5.3962283803
 H        -3.8379126326        7.8110436165       -1.0822260597
 H        -4.3849195883        6.8947033754        0.3663585868
 H        -5.5124550266        7.9777815755       -0.1969808027
 H        -4.0230472768        4.6825243413       -0.5635300046
 H        -3.0226681628        5.4366896442       -1.9079709565
 H        -4.3001763702        4.3273346940       -2.3175332848
 H       -10.9939898718        0.4810293559       -1.1022362140
 H        -9.4395378735        0.6477302307       -1.8822980487
 H       -10.9932008967        1.0274723199       -2.8774176785
 H        -9.5737677962        2.5192402189       -3.5313017571
 H        -8.7244402195        3.8586904976       -2.5069329599
 H       -10.4854325422        3.9332866569       -3.1826121050
 H       -14.5965470107        5.4478373173        3.7443704548
 H       -14.4196559962        6.3102193257        2.2497923038
 H       -13.2795614013        6.3264573841        3.5431404277
 H       -11.8810924488        3.2083236886        3.4300614320
 H       -13.2331341206        2.3531294055        3.5491973306
 H       -13.2017269470        3.6366032922        4.6037888998
 H       -14.3095247688       -1.9449560807       -0.7781262322
 H       -12.9786273878       -1.5069695050        0.0819344574
 H       -13.8888218320       -0.2814835541       -0.7704221021
 H       -16.5543563870       -2.4280617394        0.3203994490
 H       -16.6304735974       -1.0253795816       -0.5210214346
 H       -17.1727920387       -1.0790742895        1.3275009809
 H       -11.2287067649        1.3741131071        3.5395205157
 H       -10.6148079566        1.0799278660        5.2589619884
 H       -12.1820626261        0.7775032138        4.8190926577
 H        -9.3879627287       -0.3290658171        2.9085067945
 H        -9.4008678241       -1.8993964693        3.2714061263
 H        -8.5880770898       -0.8045202610        4.3139236732
 Na      -11.6852540131        1.1205292306        0.9977736104
