117

 C        -9.9128602660       -2.1079367307        6.2985587540
 C       -11.1062491746       -1.4227042835        5.6640877404
 O       -12.2092805392       -1.2591265967        6.2495914847
 C       -10.9462988802       -0.7208053677        4.3691396631
 C       -12.0388675588       -1.2060005265        3.3805100825
 O       -11.9724238627       -0.6951434951        2.2677610268
 C       -12.8248647486       -2.4404589322        3.6533731966
 C       -13.7816027779       -2.8091918812        2.4841321430
 C       -14.8784240181       -1.7257889300        2.3801896509
 O       -15.4746871726       -1.3988969220        3.3654614302
 C       -15.1520371790       -0.9263251426        0.9480645767
 C       -14.9005686528        0.5698388576        1.5175244957
 O       -13.7499181249        1.0330075364        1.7203792681
 C       -16.0688923337        1.3580361087        1.8135651689
 C       -15.7035443772        2.5338472721        2.6904503201
 C       -14.9830543974        3.5504178644        1.9107873881
 O       -15.3585128146        3.9957759724        0.8709059893
 C       -13.6618184536        4.1130131548        2.3643405948
 C       -12.5491686069        4.3310101529        1.2598226183
 O       -11.4191263189        3.8201209024        1.2844265339
 C       -12.8629896801        5.0512806343       -0.0271890503
 C       -11.7878010882        4.6555516561       -1.0312258626
 C       -11.6890145403        3.1703130012       -1.1938723338
 O       -12.6250601467        2.4044671644       -0.7904548695
 C       -10.2217555709        2.6096982844       -1.4785574251
 C        -9.2284811519        2.8311333125       -0.0954287373
 O        -9.2090884103        1.9395948612        0.7428280268
 C        -8.2964014694        4.0924883430        0.0358699888
 C        -6.9078955771        4.1178251166       -0.6981249314
 C        -6.5084614697        5.6410417733       -0.7044668648
 O        -7.1869724587        6.3173937175        0.0790526849
 C        -5.3346979295        6.2248419175       -1.3930199422
 C        -5.7621276632        7.0044557237       -2.8081372271
 O        -6.8490274354        7.5486151047       -2.8822693100
 C        -4.6500419366        7.0806555412       -3.8490348627
 C        -4.9441464795        8.1447722686       -4.9296461778
 C        -3.8101122279        8.2644885505       -5.9085356111
 O        -3.0049846310        7.3587868472       -6.0387015381
 C        -3.6298172266        9.8319605081       -6.5285451057
 C        -2.7768875774        9.6141609771       -7.8283660999
 O        -3.2589960820       10.0755533965       -8.8501126562
 C        -1.4625200440        8.8190827059       -7.7761851100
 C        -4.9656565067       10.3955517105       -6.7740080137
 C        -2.6762093479       10.6715513142       -5.6501876141
 C        -4.7679420101        7.3076479045       -0.4346007896
 C        -4.1202194128        5.3523672315       -1.7543194334
 C       -10.4253791864        1.1123168363       -1.9172287539
 C        -9.6528239803        3.3682485000       -2.6714262565
 C       -14.1317189501        5.5232432097        2.8642476660
 C       -12.9388064130        3.4525656951        3.4818591217
 C       -14.0793167856       -1.1985180357       -0.1177824949
 C       -16.5260556332       -1.1664980987        0.4089900599
 C       -11.2542036558        0.7999638845        4.5030713492
 C        -9.5245308159       -0.9950981186        3.7062264814
 H       -10.1064283819       -2.3870347890        7.3646503884
 H        -9.0711413293       -1.5424748168        6.2970125024
 H        -9.5442686036       -2.9032141908        5.7057637208
 H       -13.4844644351       -2.2435018595        4.4738354867
 H       -12.1034911393       -3.3541457624        3.8775739415
 H       -14.1797074362       -3.7730518522        2.6551531441
 H       -13.1182579190       -2.7884131519        1.6560505426
 H       -16.6815710717        0.7251237906        2.4703849860
 H       -16.6871581450        1.7276428784        1.0046039657
 H       -15.0841834632        2.2698800363        3.6160221282
 H       -16.6748165380        3.0060759843        3.0621607499
 H       -12.8847238820        6.0733616574        0.1615553726
 H       -13.8123965694        4.8316699537       -0.3743709814
 H       -10.7322304728        5.0290740465       -0.8475604265
 H       -11.9489778191        5.2039717418       -1.8509567343
 H        -8.0454965835        4.1541611760        1.0642273249
 H        -8.9563380671        4.9698718093       -0.2607096330
 H        -6.8002484429        3.6868250084       -1.7672786517
 H        -6.2530101218        3.5391800593        0.0158235451
 H        -4.4242635680        6.0578870698       -4.3309679322
 H        -3.6112570982        7.3160125510       -3.4241833416
 H        -5.2521540442        9.0980367079       -4.4473167162
 H        -5.8477810075        7.9377548673       -5.6338910803
 H        -1.7152028240        7.7512104036       -7.7958331747
 H        -0.9905940045        9.0199436382       -6.8184341253
 H        -0.9490729865        9.0661915142       -8.6540778519
 H        -5.4611902104        9.8280325442       -7.5893962380
 H        -4.8990814826       11.4561713383       -7.0199339636
 H        -5.5695142282       10.3788826938       -5.8936647656
 H        -3.2047960784       10.6616170483       -4.6927500316
 H        -2.6735862605       11.7169082933       -6.0709094569
 H        -1.6531004566       10.3468385469       -5.5103618881
 H        -3.8055814040        7.6723894542       -0.7767699485
 H        -4.6777519194        6.7505133553        0.5306871567
 H        -5.5838200084        8.0601181230       -0.1501398832
 H        -3.5244255595        5.2231657093       -0.8629902184
 H        -3.4652548015        5.5839248957       -2.5921284976
 H        -4.4463851674        4.3371816547       -2.0358453237
 H       -10.6441021151        0.5397717120       -0.9660987775
 H        -9.4929373425        0.7007473351       -2.3254321203
 H       -11.3008169048        1.1129899052       -2.5744104240
 H        -9.5888044842        2.5837280371       -3.3115466308
 H        -8.6930273419        3.8221093403       -2.5075739706
 H       -10.3633466039        3.9803059212       -3.2297774655
 H       -14.5117119273        5.3897570642        3.8674227384
 H       -14.8581164510        6.1259119868        2.2743576223
 H       -13.3610203484        6.1873468629        3.1137551939
 H       -11.9872224706        3.0252528263        3.1954844226
 H       -13.3932913359        2.5303847786        3.8457325982
 H       -12.9362298474        3.9989816384        4.4158366740
 H       -14.2578995167       -1.7885822522       -1.0035004968
 H       -13.2564689122       -1.8361073171        0.3265961721
 H       -13.6725372274       -0.2589735516       -0.4640607153
 H       -16.5907460358       -2.2450731486        0.4282273344
 H       -16.4900256019       -1.0539640776       -0.6744107965
 H       -17.1977637547       -0.7768406691        1.0567070598
 H       -11.3402351616        1.1458901131        3.5041767336
 H       -10.5416878278        1.4073289416        5.0788842351
 H       -12.2442965535        1.1881916974        4.9382424310
 H        -9.3615669583       -0.7536328719        2.6483308468
 H        -9.2785752763       -2.0300263841        3.7400549831
 H        -8.7051103025       -0.4564428047        4.2543437661
 Na      -11.6380365363        1.1703696895        0.8489168189
