117

 C        -9.9905714101       -2.0356387543        6.6037414860
 C       -11.1917784145       -1.4157934223        5.8309613475
 O       -12.2815390327       -1.5178506164        6.3134095922
 C       -10.9235028715       -0.5791391868        4.4037037725
 C       -12.0529796865       -1.1323647775        3.4135406609
 O       -12.0484182753       -0.8828607690        2.2227378677
 C       -12.9021440392       -2.3700329416        3.8634270714
 C       -13.7625827976       -2.9303597506        2.6151581354
 C       -14.8446254551       -1.8529297707        2.2968331139
 O       -15.5539605601       -1.4763856853        3.2173320210
 C       -14.9927353626       -0.9491411773        0.9965053354
 C       -14.8638311054        0.4933346237        1.4439648590
 O       -13.8399773974        1.0904495554        1.6686426390
 C       -16.1122434380        1.2249307559        2.0302442084
 C       -15.8292358237        2.5428243903        2.8727145513
 C       -14.9396528500        3.5370904305        1.9849510941
 O       -15.4350855577        3.7690018788        0.8504736747
 C       -13.7655742713        4.3203125262        2.4438494745
 C       -12.6529654673        4.3279539480        1.2995051946
 O       -11.6020478059        3.7209890352        1.3485581682
 C       -13.0168142785        5.1340060308        0.0681018627
 C       -12.0665905395        4.7821686314       -1.1528678055
 C       -11.5790869534        3.3132915240       -1.1776322755
 O       -12.3725894100        2.5001882779       -0.8852257317
 C       -10.1502792957        2.7195501846       -1.4675864028
 C        -9.3619229196        2.9217130340       -0.1987565219
 O        -9.6123298338        2.1190702829        0.6862091955
 C        -8.3638520585        4.1363344101        0.0654637409
 C        -7.0547491220        4.2583649494       -0.7357107202
 C        -6.6834068523        5.7377803460       -0.5102633791
 O        -7.3709711397        6.6136484550       -0.1004463852
 C        -5.3612216351        6.2804535860       -1.3603749500
 C        -5.6887901868        6.9139634892       -2.7825891559
 O        -6.7982707988        7.3722511250       -3.0676148687
 C        -4.5342438826        7.2187117756       -3.8437636136
 C        -4.9100510058        8.1210147378       -5.0494590005
 C        -3.6538777620        8.2233132060       -6.0185797951
 O        -3.0062379629        7.2188229318       -6.1388452672
 C        -3.2750027225        9.5668259902       -6.6326509168
 C        -2.5053775895        9.3588817506       -7.9659263968
 O        -2.8029203004       10.1034202919       -8.8670281423
 C        -1.3667995459        8.3163952112       -8.2600880788
 C        -4.6450534974       10.2241217844       -6.9400693633
 C        -2.5354832501       10.4939023717       -5.6372018784
 C        -4.6927907704        7.4516295133       -0.5503082572
 C        -4.3549260872        5.0797854454       -1.5022988508
 C       -10.1764826565        1.1706547672       -1.8251866066
 C        -9.6792380155        3.5373811734       -2.6962442351
 C       -14.1372844560        5.7377423941        2.7698521807
 C       -13.0585814817        3.8391731073        3.6479660742
 C       -14.0576414570       -1.3110804928       -0.1672301051
 C       -16.5827734934       -1.1130345399        0.4807997328
 C       -11.0018584297        0.8562720233        4.6052165694
 C        -9.6170033180       -0.7820923713        3.7714768588
 H       -10.3023136109       -1.9957515735        7.6111297416
 H        -8.9795116905       -1.4166659754        6.5668412458
 H        -9.5568530552       -3.0524171283        6.2862983805
 H       -13.6929984594       -2.2986719950        4.6288823581
 H       -12.2680321506       -3.1423456227        4.1050060275
 H       -14.2274970487       -3.7719323545        3.2457064278
 H       -13.0608162961       -3.3501918849        1.8861888767
 H       -16.8378093974        0.7146601704        2.5971183013
 H       -16.6245973126        1.6128591402        1.1292611897
 H       -15.4773305055        2.2115571560        3.8172235066
 H       -16.7246328656        3.1311424499        3.0567361975
 H       -13.3498057837        6.2597795719        0.0712151074
 H       -14.0903131573        4.6251816437       -0.0743022599
 H       -11.3603854342        5.5752222057       -1.2732016684
 H       -12.6218220427        5.0258656690       -2.2062900994
 H        -8.1088900954        4.1123565929        1.1543734147
 H        -8.9746466709        4.9397175128       -0.0889770839
 H        -7.0727459770        3.9543468686       -1.7265276657
 H        -6.3871389376        3.6246268661       -0.1891664091
 H        -4.0725903609        6.3421644550       -4.1436149033
 H        -3.6792086655        7.6415570506       -3.3942743354
 H        -5.2201294982        9.0952553203       -4.5805601659
 H        -5.7648445830        7.7286429419       -5.4882339634
 H        -1.7724038892        7.6049487738       -8.9353702843
 H        -0.9448801681        7.7665827467       -7.4385899364
 H        -0.6749352489        8.9460985264       -8.9198372201
 H        -5.3562444475        9.5179074202       -7.3982344008
 H        -4.5402080002       11.1717615585       -7.4959700474
 H        -5.0261594614       10.6940727881       -5.9549724776
 H        -3.1672128938       10.9798978008       -4.9123106810
 H        -2.0159517303       11.1685166882       -6.2539756343
 H        -1.7638469989        9.8838295902       -5.0776944663
 H        -3.8046323770        7.7990461306       -1.1313909998
 H        -4.4397659734        7.2244078766        0.4679886993
 H        -5.4438708358        8.1729319961       -0.5713610241
 H        -3.9602412542        4.6412044527       -0.5827933704
 H        -3.5816950694        5.3965068616       -2.1524316331
 H        -4.8602600890        4.1609830470       -1.8910289290
 H        -9.8354694365        0.5666468825       -1.0601490856
 H        -9.4932431253        1.0464764004       -2.6341425124
 H       -11.2495514295        0.9842038702       -2.0106223324
 H        -9.0991727007        3.1120456544       -3.5371250555
 H        -9.2170025943        4.3903785142       -2.0785386604
 H       -10.5419726041        3.8253039420       -3.2173783598
 H       -14.8505581570        5.9450989571        3.5487336866
 H       -14.5478047911        6.1986318563        1.8636199859
 H       -13.2592481216        6.3769024467        3.0991755482
 H       -12.1154296284        3.2773397778        3.4188592486
 H       -13.5747724532        3.2139545172        4.3685769368
 H       -12.9319690559        4.6941452803        4.2914424203
 H       -14.4529507958       -2.3052247849       -0.5176814649
 H       -13.0786718553       -1.6885031526        0.0302764026
 H       -14.0518095836       -0.6382994215       -1.0500459076
 H       -16.6248054405       -1.8757089367       -0.2898382897
 H       -16.8809445172       -0.2479856391       -0.0559442522
 H       -17.0663698356       -1.4197868385        1.4972213180
 H       -10.9619244210        1.6281204962        3.7653867375
 H       -10.3065707699        1.0360191693        5.3702792989
 H       -11.8353733458        1.1706685204        5.0890928421
 H        -9.5428113071       -0.6049264153        2.6739692619
 H        -9.1049146191       -1.7898693229        3.7946664268
 H        -8.9219738514       -0.0601729628        4.2484998624
 Na      -11.5611532748        1.1571281355        0.8809451858
