117

 C        -9.8412237894       -1.7831434201        6.9437351500
 C       -11.1034458158       -1.4962971520        6.0138636133
 O       -12.1629973333       -1.4327289212        6.5037378337
 C       -10.8529121585       -0.8186146453        4.5377049689
 C       -11.8117698927       -1.3640934138        3.4921443978
 O       -11.7458312967       -0.9107697816        2.3518418414
 C       -12.9232457443       -2.4879914419        3.8543472074
 C       -13.8316731569       -2.7546412447        2.6005691622
 C       -15.0686263433       -1.8042050664        2.3832004311
 O       -15.9308489855       -1.7447504059        3.2447938930
 C       -15.1827121460       -0.8662989020        1.0690305472
 C       -15.0639148137        0.6012455432        1.5291704680
 O       -14.0960566959        1.2376816451        1.1650455654
 C       -16.2383323571        1.2290141695        2.3910873168
 C       -15.5354053572        2.5709853756        3.0682368142
 C       -15.0627993931        3.5518414080        2.0313917356
 O       -15.5506671573        3.5979055467        0.8973483522
 C       -13.9295596368        4.6564377628        2.4096279604
 C       -12.8528536339        4.3060689437        1.3649084858
 O       -11.9375820433        3.5545912780        1.6803624461
 C       -13.1476093864        4.9982690464        0.0330755118
 C       -12.0658081441        4.7634860708       -1.0159399266
 C       -11.6124763336        3.2090927829       -1.1460123107
 O       -12.3693104523        2.3312675534       -0.9607982168
 C       -10.0956412589        2.8943160314       -1.6623632439
 C        -9.3715044794        3.0106374328       -0.2948420396
 O        -9.6057679882        2.1777799106        0.5359760581
 C        -8.6983962610        4.4354615172       -0.0180505294
 C        -7.4018190146        4.7365646271       -0.6079634334
 C        -6.7620385974        6.1634658981       -0.5886143910
 O        -7.4205951085        7.1639805849       -0.3845206963
 C        -5.2398127475        6.4006280694       -1.3745539071
 C        -5.5164773774        6.7999228631       -2.8907393351
 O        -6.6509667099        6.7738435251       -3.3247067485
 C        -4.3983598069        7.0099713437       -3.9078257522
 C        -4.7236756218        8.0918596321       -4.9937126969
 C        -3.5986513836        7.9255456929       -6.0729827165
 O        -2.9960527451        6.8687314113       -6.1773335992
 C        -3.1456332103        9.1784506134       -6.8323278651
 C        -2.2093461667        9.1276920733       -8.1879785642
 O        -2.2043340579       10.1016160414       -8.8692805601
 C        -1.3498884847        7.7902251611       -8.4467328060
 C        -4.2762724778       10.2359311021       -7.2364414347
 C        -2.0100407090        9.9548209158       -5.9721159350
 C        -4.6765687023        7.5078279968       -0.3594238262
 C        -4.4750879647        5.0984533139       -1.4006339151
 C        -9.8094481327        1.4583764820       -2.0868161922
 C        -9.8982375847        4.0418391273       -2.7267159821
 C       -14.6812190361        6.0771403735        2.3977660796
 C       -13.3444950745        4.4828220309        3.8109974120
 C       -13.9985728967       -1.1502358877        0.1060570612
 C       -16.5980916339       -1.3454104710        0.3341442763
 C       -11.2600238731        0.6703199571        4.6746047945
 C        -9.4008219941       -0.9929001439        4.0720311382
 H       -10.1388077243       -1.9907482362        7.9230259292
 H        -9.2872850618       -0.8034379136        6.8560291999
 H        -9.1056665921       -2.4876449058        6.6247177071
 H       -13.5728437224       -2.2293380903        4.7528286821
 H       -12.3749152398       -3.3498091129        4.0762144263
 H       -14.1109302355       -3.7833235447        2.5712753411
 H       -13.0034793474       -2.5625910166        1.9278603365
 H       -16.5471743072        0.4794887315        3.1440710263
 H       -17.0995796261        1.5542451352        1.8771928412
 H       -14.5991262484        2.1702197685        3.6022563406
 H       -16.1181442432        3.0828048000        3.9464766673
 H       -13.2555654115        6.0228705483        0.2680498016
 H       -14.0720601370        4.7843898244       -0.3601682745
 H       -11.3336718955        5.5303256951       -0.8324374534
 H       -12.6014657001        4.9958471268       -2.0766968978
 H        -8.7540396672        4.4329921345        1.0840589199
 H        -9.3095222824        5.2724143991       -0.3728550077
 H        -7.5003256647        4.3942843747       -1.6791994292
 H        -6.6017897314        4.0294993104       -0.1200089439
 H        -4.0664413528        5.9928092134       -4.2969595775
 H        -3.3659913115        7.2171777672       -3.5341048595
 H        -4.5715871475        9.0818485796       -4.4938421868
 H        -5.8222719546        7.8705836471       -5.2529825364
 H        -2.0981396849        7.0553223806       -8.8094811956
 H        -1.0693296867        7.3734017032       -7.5227632431
 H        -0.5414702079        7.9211493771       -9.1767857335
 H        -5.0142080676        9.5996389131       -7.5695487817
 H        -3.9491185872       10.8043396861       -8.0752515254
 H        -4.6144856675       11.0009232907       -6.5489825998
 H        -2.1532298551        9.9672100912       -4.8484025266
 H        -1.8075499280       10.9414361722       -6.3515890760
 H        -1.1534078225        9.3515795801       -6.2434903489
 H        -3.5656301559        7.7293359211       -0.3463250763
 H        -4.7306075323        6.9156874205        0.5956265135
 H        -5.2672126847        8.4076566571       -0.4436130014
 H        -4.5163788437        4.6039190182       -0.4364735157
 H        -3.4275272699        5.2862840550       -1.5719425058
 H        -4.9028095543        4.3239453557       -2.0002476336
 H       -10.0908672266        0.6123260855       -1.4144443191
 H        -8.6827974665        1.4564112071       -2.0026260465
 H       -10.2322184743        1.3019350042       -3.0827062249
 H        -8.8488166614        4.2594693368       -2.7875703997
 H       -10.3197667209        4.9894471251       -2.4246885817
 H       -10.1975552829        3.7551839266       -3.6634353544
 H       -15.3951337578        6.2815173322        3.2196412294
 H       -15.2401231378        6.2181415102        1.5333774252
 H       -13.9258610055        6.8901098314        2.4962649804
 H       -13.3480541386        3.4160848233        4.1009437617
 H       -13.9944990501        5.0461742199        4.5298065097
 H       -12.2592496506        4.7586698774        3.9209582101
 H       -13.6659555877       -2.1471963068       -0.2072016394
 H       -13.1101926776       -0.5631697050        0.1692719610
 H       -14.3453499410       -0.7461146653       -0.9254815904
 H       -16.2769598653       -1.9217652091       -0.4970035839
 H       -17.0637530272       -0.4441312734       -0.0239811900
 H       -17.3090724134       -1.9177359713        1.0477186240
 H       -11.3629913376        1.2026948987        3.6395437880
 H       -10.7485901615        1.4145727900        5.3425833166
 H       -12.2590227912        0.6813581249        5.0163484148
 H        -8.9638026251       -0.4062686990        3.2735006950
 H        -9.2699452555       -2.0302469357        3.6629203227
 H        -8.7521454313       -0.9341447731        4.8877528145
 Na      -11.6040136183        1.2866577707        1.1194229336
