117

 C        -9.8463925304       -1.6831082481        7.0780623595
 C       -11.0699057071       -1.5129368047        6.2131313596
 O       -12.2299615743       -1.5661437030        6.6088133270
 C       -10.8210999971       -0.7686247630        4.6198225857
 C       -11.8433148849       -1.3185004779        3.5657795531
 O       -11.6194191088       -0.9897896957        2.4135616991
 C       -13.0113575656       -2.3970470607        3.9110702451
 C       -13.8873655294       -2.8776358601        2.5662934512
 C       -14.9946630324       -1.9228906647        2.3933382002
 O       -15.8246517901       -1.7140627908        3.2519286518
 C       -15.1466162249       -0.8941575705        1.0039731531
 C       -15.0168630325        0.6083269084        1.6033043047
 O       -14.0694000577        1.2803320374        1.1854404241
 C       -16.1997666946        1.1799132435        2.4499036493
 C       -15.6576721846        2.3343755225        3.2262267181
 C       -15.2423113382        3.5338395881        2.2458118486
 O       -15.9991341120        3.6678008598        1.3455303005
 C       -14.2190539195        4.6723017082        2.3901683235
 C       -13.0925126940        4.3683090982        1.3914871819
 O       -12.1816985722        3.7076122631        1.8823750105
 C       -13.4061158364        4.6387609061       -0.0382579979
 C       -12.1855575594        4.6841228429       -0.9568285655
 C       -11.6859148152        3.2491091972       -1.2284043686
 O       -12.2751855759        2.1708576822       -1.0426397304
 C       -10.1953553363        3.0881232155       -1.8870367052
 C        -9.3591243282        3.5777349462       -0.4094593430
 O        -9.2189689485        2.6664532769        0.4380297462
 C        -8.7557307651        4.8600490980       -0.0267205838
 C        -7.1732593077        4.7852137593       -0.4951363330
 C        -6.7136752609        6.2266543894       -0.7484050185
 O        -7.5203554800        7.1357609406       -0.5336318920
 C        -5.3721324234        6.4718971716       -1.4172280509
 C        -5.5349500559        6.7477458145       -3.0351537076
 O        -6.5748777664        6.3899598750       -3.5397018970
 C        -4.2285969741        7.0638575185       -3.6771021525
 C        -4.3735293747        7.9779575158       -4.8675130318
 C        -3.3743097594        7.7346452182       -6.0600330815
 O        -3.0920659670        6.6582686828       -6.5608122582
 C        -2.8696766661        9.0296689716       -6.6989859498
 C        -1.9638477837        8.7725034251       -8.2990807551
 O        -1.8549430125        9.7378647930       -8.9969369526
 C        -1.4735710292        7.3207471598       -8.5563916738
 C        -4.1311616000        9.9450493504       -6.9922441730
 C        -1.8009966155        9.8612079439       -5.8450495240
 C        -4.6340088414        7.6236597438       -0.6400666310
 C        -4.4636657285        5.2345356304       -1.3641152086
 C        -9.9595744118        1.6877359133       -2.3270027307
 C        -9.7166137939        4.0654966266       -2.9152991023
 C       -14.8932175264        6.0062514226        1.9962999523
 C       -13.6959371752        4.9012018651        3.8328469951
 C       -14.1367724427       -1.1532567942       -0.1174925531
 C       -16.6755625469       -1.0210516311        0.5892533499
 C       -11.0878409149        0.7706420835        4.7405075043
 C        -9.3254771141       -0.9584769058        4.2291813403
 H        -9.9844192005       -2.6615844527        7.7671677733
 H        -9.8296426453       -0.7373610915        7.6044652652
 H        -8.8181208606       -1.8568053313        6.6090700656
 H       -13.6060810980       -2.0282517282        4.6830168281
 H       -12.3929630063       -3.2276803084        4.4500976500
 H       -14.3723475911       -3.8852382443        2.6704224241
 H       -13.0218400550       -2.9614240456        1.8378097301
 H       -16.5576411011        0.4073994253        3.1470341842
 H       -17.0135797237        1.5940909747        1.8142181461
 H       -14.8772636947        1.9019295806        3.8071685098
 H       -16.3099399485        2.5719299147        3.9927716941
 H       -14.1077230779        5.5624094219       -0.0730755338
 H       -14.0737991820        3.7672204639       -0.5010049293
 H       -11.4524820796        5.2410142039       -0.2694897089
 H       -12.3417072571        5.1478335751       -1.8205684385
 H        -8.7961554121        5.0613489110        1.0227721111
 H        -9.2280323876        5.7318464510       -0.5298218505
 H        -7.0857519714        4.4150101897       -1.4857863107
 H        -6.6862126187        4.2283842185        0.1966918276
 H        -3.7081562789        6.1950210949       -3.9403914940
 H        -3.4867908717        7.5421535397       -3.0780502493
 H        -4.1954919787        8.9638176509       -4.5564375225
 H        -5.3396242659        7.8766974723       -5.3252055113
 H        -2.2270055268        6.6184311805       -8.1672221026
 H        -0.5213026993        7.1743405113       -7.9773904904
 H        -1.2945973280        7.2066558924       -9.5876517175
 H        -4.9282261873        9.4449944367       -7.6616114802
 H        -3.8141970945       10.9598376611       -7.4087273600
 H        -4.5737326977       10.2433897824       -6.0147081493
 H        -2.2454340910       10.0993000343       -4.8960915040
 H        -1.7718875825       10.8470380506       -6.3870309017
 H        -0.7953153279        9.4829566922       -5.7572268092
 H        -3.6475733592        7.7588908090       -0.9676285559
 H        -4.4025875113        7.1349080348        0.2544945362
 H        -5.1504064930        8.6146924023       -0.5982091661
 H        -4.1005871432        5.1423138553       -0.3474974099
 H        -3.5337500813        5.1161775234       -1.9246374262
 H        -5.0705410973        4.3626280013       -1.4120556347
 H       -10.8931600239        1.1322910727       -2.3329635465
 H        -9.3727094418        1.1812660494       -1.5765393926
 H        -9.5498923061        1.6035915910       -3.3324785760
 H        -8.9385138463        3.5096051977       -3.4989218359
 H        -9.1630796078        4.9230311893       -2.5856573600
 H       -10.5321172800        4.5575572281       -3.6040364188
 H       -15.6031639712        6.1633943784        2.8435555411
 H       -15.5758810587        6.0318842658        1.1071251271
 H       -14.1764699674        6.8382416616        1.9241227600
 H       -13.1238896751        4.0418832135        4.1856554301
 H       -14.5566517321        5.1465515510        4.4967669823
 H       -12.9024737573        5.6402675745        3.7964573320
 H       -14.6493109181       -1.6443751037       -0.9127629227
 H       -13.2987971831       -1.8477623146        0.1425349472
 H       -13.5278655378       -0.4157080513       -0.5714047794
 H       -16.9283056609       -2.1283249258        0.5559242793
 H       -16.7095062372       -0.4457898100       -0.4043170910
 H       -17.3212292130       -0.4662832095        1.1930802829
 H       -11.0657232107        1.2847164537        3.8744494786
 H       -10.3471163493        1.3111060085        5.2998197518
 H       -12.0921478772        1.0011429050        5.2114601576
 H        -9.2655600639       -1.0918931019        3.0968741939
 H        -9.0274844307       -1.9932065546        4.5161528175
 H        -8.4586041329       -0.2759734051        4.4743200460
 Na      -11.6282385905        1.4362692090        1.1458066854
