117

 C       -10.0824887202       -1.4972011080        7.2464726097
 C       -11.2151881703       -1.2726385926        6.1526072153
 O       -12.2823253801       -1.7733828347        6.2974839280
 C       -10.8406373162       -0.6338006435        4.7389857056
 C       -11.8510012930       -0.9890456588        3.5252508937
 O       -11.8822142835       -0.2363353543        2.5838724719
 C       -12.7220131236       -2.2279062766        3.7329775830
 C       -13.5538437013       -2.7202070255        2.4681919858
 C       -14.8581793588       -1.8868163255        2.4112593524
 O       -15.5140527083       -1.8310344840        3.4231158692
 C       -15.1826355913       -0.8428817309        1.1793276338
 C       -14.8774770548        0.4912040667        1.8602623122
 O       -13.8594070078        1.0874334412        1.5964189062
 C       -15.9237019106        1.1127210637        2.7849701188
 C       -15.4818230962        2.4788646890        3.2109500468
 C       -15.8692060594        3.6960871492        2.3880831754
 O       -16.9409531967        3.7869791341        1.9059427523
 C       -14.7655597629        4.9501652851        2.2442852083
 C       -13.5659047405        4.3186893935        1.3868223878
 O       -12.6606492545        3.6474541562        1.8262963897
 C       -13.8453227717        4.3018612521       -0.1281934836
 C       -12.5428950406        4.4121129288       -1.0326779919
 C       -11.8285661458        3.0166349328       -1.2082170008
 O       -12.2719823851        1.9112472111       -0.9789667578
 C       -10.2969840315        3.3542974316       -1.7488199143
 C        -9.4450903769        3.7097841451       -0.4521404075
 O        -9.6404497968        2.9054774756        0.4733249362
 C        -8.6037611749        4.9240374173       -0.1065736138
 C        -7.1829237738        4.8790447839       -0.7094588668
 C        -6.6292558113        6.3160378793       -0.8344685858
 O        -7.4528181982        7.2528100490       -1.0437617686
 C        -5.1022757956        6.5741969337       -1.3357681161
 C        -5.2320204005        6.4908778536       -3.0533887965
 O        -6.2519671173        6.2343006476       -3.6119674640
 C        -3.9097754015        6.6103518103       -3.8021313472
 C        -3.9491077496        7.6857954503       -4.8812797423
 C        -3.2182432844        7.4608085126       -6.1897323684
 O        -3.0124206912        6.3607484660       -6.6459590073
 C        -2.6892415125        8.6998649995       -6.9552721019
 C        -1.8344949912        8.2983371896       -8.4140436998
 O        -1.2737636152        9.1267462572       -9.0073399144
 C        -1.4927283989        6.7496109072       -8.5542403170
 C        -3.7017722763        9.9222265245       -7.1082826738
 C        -1.5083394444        9.1953196323       -6.0408718177
 C        -4.5350574492        7.9952114633       -0.9120130000
 C        -4.1071927365        5.4874110079       -0.7046014487
 C        -9.6267755239        1.9806804869       -2.3695413056
 C       -10.1435018548        4.5159081524       -2.8691593633
 C       -15.5101249465        6.1645318543        1.6516697232
 C       -14.2523073407        5.2714539648        3.6731072773
 C       -14.2547877135       -0.9508700324       -0.0377760062
 C       -16.6879075314       -0.9936694089        0.7575518542
 C       -10.8146432860        0.9419959191        4.9615868126
 C        -9.4354413218       -1.0396465390        4.1543524597
 H        -9.7224182771       -2.5227518635        7.2318736257
 H       -10.4479213948       -1.0530115300        8.2329409456
 H        -9.1069346721       -1.0032202841        6.9417462011
 H       -13.3693434455       -2.1331199222        4.5062871773
 H       -12.0480405414       -2.9850545095        4.1872470842
 H       -13.5633550319       -3.8126334750        2.5903246366
 H       -12.9638044304       -2.5513840599        1.4714838672
 H       -16.2603001236        0.5149768437        3.6101828080
 H       -16.6795844366        1.3133793021        2.0723476104
 H       -14.4053070264        2.3064541273        3.3408694476
 H       -15.6661625259        2.5954694409        4.2550983742
 H       -14.5449769372        5.1051716700       -0.4679307853
 H       -14.4192006937        3.3439777994       -0.4545866246
 H       -11.8942278059        5.0297358286       -0.3452916608
 H       -12.8924285641        4.9070240764       -1.8378529761
 H        -8.5309012494        5.0253600829        0.9164785377
 H        -8.9750799432        5.8744727626       -0.5660043475
 H        -7.3188108658        4.5532178863       -1.7799840060
 H        -6.5046328079        4.2240855651       -0.2348434627
 H        -3.8278780408        5.6634674492       -4.3637414760
 H        -3.0304520449        6.8079942636       -3.1806806693
 H        -3.7461735096        8.6230974767       -4.5578496743
 H        -5.0163350327        7.7119431496       -5.2320952077
 H        -2.2979852556        6.0933644654       -8.9734271107
 H        -1.2049286167        6.4016048451       -7.5612108121
 H        -0.5978645353        6.6722452549       -9.0661015724
 H        -4.3295600287        9.6876059098       -7.9721740053
 H        -3.1974569309       10.8284437502       -7.4644712736
 H        -4.3622372727       10.0896579055       -6.3036515086
 H        -1.7125457770        9.6836461452       -5.0623076877
 H        -0.8781355975        9.8584067325       -6.7353647266
 H        -0.9137834330        8.3430670207       -5.8093374836
 H        -3.4710168886        7.9538183352       -1.2343367413
 H        -4.7781276695        8.2458479861        0.1668765132
 H        -4.9490379833        8.8397214775       -1.5603436277
 H        -4.2496517959        5.4902596160        0.3403883959
 H        -3.0307581007        5.7214419861       -0.8318924274
 H        -4.1486539006        4.5137037522       -1.0971590852
 H        -9.4160760107        2.0987195752       -3.4609575382
 H       -10.3330855097        1.1519342778       -2.2965928627
 H        -8.7775368551        1.6947264551       -1.8592500176
 H        -9.1021545303        4.9019824121       -2.8032480867
 H       -10.8168586204        5.2753630667       -2.6123826915
 H       -10.4215562261        4.3290040190       -3.9001026947
 H       -16.2781291442        6.4071030725        2.4365530851
 H       -16.0344991307        5.9494965888        0.7638487209
 H       -14.8282743100        6.9447340111        1.3794047611
 H       -13.5461569891        4.4846634485        3.9397730321
 H       -15.1234361885        5.3160513291        4.3985005025
 H       -13.6803055525        6.1983076532        3.5269410036
 H       -14.1462426832       -0.0818319674       -0.6746801874
 H       -14.3082989382       -1.8412627638       -0.7064990768
 H       -13.1497911891       -1.1206481479        0.2693719972
 H       -16.8758650626       -1.7399931955       -0.0248199167
 H       -17.1011343271        0.0515699645        0.6265816987
 H       -17.2832370631       -1.2091325852        1.6317647415
 H       -10.5404245508        1.6299506600        4.2804798880
 H        -9.8792816588        0.9816568212        5.5424521985
 H       -11.5957968267        1.3689416882        5.6044248066
 H        -9.0946058144       -0.1804747684        3.4766975055
 H        -9.4281263426       -2.0598299784        3.7059367691
 H        -8.6162772956       -1.1139069365        4.8955325384
 Na      -11.3885393236        1.5758351091        1.1574786381
