117

 C       -10.1470445856       -1.3968592835        7.2020500012
 C       -11.1424439729       -1.3605226047        6.0864250787
 O       -12.2712732764       -1.7318446253        6.3359423012
 C       -10.7727119357       -0.5884769076        4.7948059005
 C       -11.8973458012       -0.9106656695        3.5973289269
 O       -11.9236285355       -0.1982224079        2.5947640452
 C       -12.4991332954       -2.2784535081        3.6490938801
 C       -13.4006643872       -2.7200732943        2.4145054882
 C       -14.7578438940       -1.8720075656        2.3629334242
 O       -15.4880742446       -1.9561128857        3.3652295998
 C       -15.1275359504       -0.8981921441        1.3022992773
 C       -14.9256222863        0.5507657677        1.7948801657
 O       -13.8982930276        1.1275605073        1.5759071308
 C       -16.0096398620        1.2431147486        2.7313343445
 C       -15.5170902369        2.5780510229        3.3757808845
 C       -15.9116235038        3.7315632595        2.5515851581
 O       -17.0430520972        3.7958253304        1.9900150038
 C       -14.8187566529        4.8492782918        2.2791110027
 C       -13.7619788064        4.2640586662        1.3566948922
 O       -12.8045456071        3.6374062970        1.7864241335
 C       -13.9307546495        4.2757028296       -0.2417382297
 C       -12.5629111320        4.2717419796       -1.0723329507
 C       -11.7322217641        3.0891241751       -1.2355311133
 O       -12.0615823535        1.9362752276       -1.1644074568
 C       -10.3398189688        3.3894354257       -1.5782738783
 C        -9.5040683665        3.6877134299       -0.2970359687
 O        -9.6781977399        3.0432833904        0.6927289697
 C        -8.6147176646        4.9192347388       -0.3157577298
 C        -7.0776819480        4.8865805868       -0.8848983517
 C        -6.6248175421        6.3269887075       -1.0915722911
 O        -7.4231269468        7.2711910202       -1.0225638273
 C        -5.0696271050        6.5362617246       -1.3482753726
 C        -5.1287919784        6.3833290072       -2.8994089944
 O        -6.2250204417        6.1803998547       -3.3691337487
 C        -3.8205677799        6.5804771151       -3.7414403447
 C        -3.9519809402        7.6659165500       -4.8899551851
 C        -3.1686571323        7.2958986693       -6.2856219549
 O        -3.1695013840        6.1544400207       -6.6499576438
 C        -2.4601558418        8.5156425655       -7.0676206869
 C        -1.6721337362        8.1791776850       -8.2479102572
 O        -1.2773696292        9.0340507445       -9.0526252023
 C        -1.4081327333        6.7248605504       -8.6490268864
 C        -3.4662990855        9.6966138564       -7.0922402596
 C        -1.3703820448        9.2618140408       -6.1056482831
 C        -4.6821074440        8.0148872966       -1.0843230565
 C        -4.1659499050        5.5922883561       -0.7628170495
 C        -9.8138988037        2.0840280394       -2.3380071743
 C       -10.3443365817        4.5922097169       -2.6432591570
 C       -15.5537469582        6.0188260059        1.5348168491
 C       -14.2581056357        5.5229797271        3.5880654688
 C       -14.3549918604       -0.9167820550       -0.0716024650
 C       -16.6128326547       -0.9584655397        0.8189223117
 C       -10.7260174897        1.0757972656        5.0502421982
 C        -9.4661839262       -1.0962208987        4.1738252607
 H        -9.5883299564       -2.2933088590        7.1249279201
 H       -10.8047243872       -1.2393790126        8.1544651816
 H        -9.3051962982       -0.6533970740        7.1297308187
 H       -13.1222148188       -2.4758501279        4.6324353128
 H       -11.6363962243       -2.9200219561        3.9005679058
 H       -13.6475861579       -3.7679167520        2.7484460653
 H       -12.8802883261       -2.8981225014        1.4645390245
 H       -16.3609642209        0.4781852319        3.5212851373
 H       -16.8349100583        1.6198422184        2.1590274611
 H       -14.4839702859        2.5258814252        3.5049636355
 H       -15.7708838769        2.6093534074        4.3800565226
 H       -14.4425800598        5.1718595985       -0.7442544759
 H       -14.5901675924        3.3945570231       -0.6574727568
 H       -12.0895368421        5.0983802764       -0.8248936156
 H       -13.1120892731        4.4206311959       -2.0213040347
 H        -8.3874552677        4.9361172519        0.7371118955
 H        -9.0629987299        5.9197182464       -0.5719144088
 H        -7.1248284919        4.4259445500       -1.8105155328
 H        -6.4470163287        4.2376845174       -0.3167923534
 H        -3.6716396884        5.5631316273       -4.0932727889
 H        -3.0281803388        7.0013330911       -3.1726052482
 H        -3.6087379085        8.6172116823       -4.5489399643
 H        -4.9897827802        7.8527438031       -5.0368666947
 H        -2.3818214670        6.2226095182       -8.7368796228
 H        -0.7994089975        6.2169387645       -7.9325276521
 H        -0.8143414235        6.6823381625       -9.5819400727
 H        -4.1671858542        9.5353142885       -7.9069009747
 H        -3.0291286623       10.6773412700       -7.3877578103
 H        -4.1025982044        9.7087569505       -6.1719261972
 H        -1.6294875300        9.3298020179       -5.0039017979
 H        -1.0220260693       10.1803005789       -6.5261650329
 H        -0.5647393640        8.5535071469       -6.0744184466
 H        -3.6997256042        8.1526746658       -1.5344163398
 H        -4.7714229391        8.1739938024        0.0005405704
 H        -5.3104400039        8.7118687858       -1.5237062152
 H        -3.9498894940        5.8765213462        0.2413260364
 H        -3.2244690504        5.4718613380       -1.2941963375
 H        -4.4992918640        4.5920823051       -0.8724093677
 H        -9.5669873255        2.4040351972       -3.3013468541
 H       -10.4737608056        1.2302933320       -2.4063888707
 H        -8.9422976025        1.7058051414       -1.8478118010
 H        -9.4445354741        5.2375414500       -2.4600522394
 H       -11.3453646145        5.2262201494       -2.5724572303
 H       -10.3055043407        4.3657228433       -3.7045010287
 H       -16.3555583227        6.2986766075        2.2440185872
 H       -16.0062785447        5.7132351632        0.6240171805
 H       -14.8416509175        6.8390003919        1.2306380784
 H       -13.8050613084        4.7860169045        4.2384657430
 H       -15.1076358066        6.0585184823        4.0888217193
 H       -13.5275985932        6.2169496197        3.1366991314
 H       -14.5974819689       -0.0019935558       -0.6253472532
 H       -14.3727756906       -1.7272223681       -0.7236121545
 H       -13.2466345963       -0.7795263313        0.0079967071
 H       -16.7424576827       -1.5947456355       -0.0796209952
 H       -16.9082879272        0.0668816957        0.6354149314
 H       -17.4081278767       -1.2198281951        1.6233400081
 H       -10.6830174700        1.7957785106        4.1381006526
 H        -9.8349174614        1.4976318717        5.4765342531
 H       -11.4808841904        1.4060468531        5.6581370190
 H        -9.0573006124       -0.4653755154        3.3264837288
 H        -9.6022996704       -2.2017714680        3.9225857394
 H        -8.6343459197       -1.1780544365        4.9173954350
 Na      -11.4681862057        1.6877199112        1.2672927821
