117

 C        -7.6520936962       -6.1074997527        4.5218828966
 C        -7.2041909079       -5.5323085739        3.1091198161
 O        -6.6199124697       -6.2606469587        2.3532543131
 C        -7.5921241693       -4.1427011983        2.7202863844
 C        -9.0192792120       -4.0139229958        2.2152865666
 O        -9.6082133468       -5.0969016776        1.9843843378
 C        -9.8223489523       -2.7233463043        1.9180171339
 C       -11.2393007881       -3.2162299935        1.4909709728
 C       -12.0364889109       -1.9574504486        1.1220911458
 O       -12.0235864936       -1.4463347214        0.0074880230
 C       -12.9115338782       -1.1332166733        2.2535446139
 C       -11.8377388828        0.0393449103        2.6372037843
 O       -11.0745848442       -0.2770194337        3.5304874050
 C       -11.5205031432        1.1871946892        1.6810534563
 C       -10.0590088761        1.4327605439        1.2877799461
 C        -9.9496382777        2.5005480107        0.2108879957
 O        -9.9775797930        3.6774033074        0.5357043472
 C        -9.9513499066        2.0902812296       -1.2080411313
 C       -11.2533777488        2.6800540775       -1.7617949193
 O       -12.1845842752        2.8319866284       -0.9913230267
 C       -11.5628621086        2.8275115025       -3.2678067720
 C       -12.5293420892        4.0174566549       -3.3666244488
 C       -11.9381024132        5.2206582146       -2.5672467737
 O       -10.7390461782        5.0555728652       -2.3058298065
 C       -12.6490636928        6.7108260622       -2.3765780693
 C       -11.4249657227        7.7019923931       -2.4938678069
 O       -10.4606158599        7.5746076224       -1.7852470716
 C       -11.4533239738        8.7904299812       -3.6574283034
 C       -10.3038527383        9.8085639364       -3.5988613853
 C       -10.3490326075       10.5264178532       -2.2844803428
 O       -11.3122482756       10.3458648374       -1.5699943836
 C        -9.2353004583       11.3551955419       -1.7639824636
 C        -8.3552427664       10.5155676301       -0.8414772392
 O        -7.1596020368       10.2609191065       -1.1461147622
 C        -8.9492756540       10.0767129161        0.5556454853
 C        -8.0701630194        9.2691219736        1.4430507342
 C        -7.8789289533        7.8309078712        0.9592541019
 O        -8.9020952439        7.1871657100        0.9217198570
 C        -6.5093268739        7.1864077334        0.7911337447
 C        -6.2467211898        6.7700624500       -0.7027859948
 O        -7.1202721945        6.1687216021       -1.3089519348
 C        -4.9330548194        7.1020236597       -1.4258110890
 C        -5.4252054153        8.1356801196        1.1364572989
 C        -6.4442536116        5.8251222066        1.6381923470
 C        -8.3434871476       11.8992554728       -2.9485907776
 C        -9.5965046042       12.5888141669       -1.0298358755
 C       -13.6861769943        7.0598536814       -3.4786271974
 C       -13.1260944736        6.9074516232       -0.9257967414
 C        -8.7246672095        2.7343774787       -1.9915106694
 C        -9.8632874523        0.6012585309       -1.4517925340
 C       -14.2337966303       -0.6630402578        1.6136780436
 C       -13.1713827999       -2.0488066504        3.5005293082
 C        -7.3550713015       -3.2872913646        3.9414823631
 C        -6.6648620873       -3.6644989973        1.5505472612
 H        -6.8165576484       -6.2159387601        5.1460513868
 H        -8.1293905520       -7.0604357857        4.3014233386
 H        -8.4173605520       -5.4750491846        4.9359593307
 H        -9.3634931722       -2.3058446760        1.0821565840
 H        -9.6291716812       -1.9226648306        2.7073604961
 H       -11.7824713536       -3.7332721100        2.2764790027
 H       -11.0392232252       -4.0252074812        0.7092415794
 H       -11.9018847680        2.0427820317        2.2249692635
 H       -12.2053572534        1.1216081486        0.8001088030
 H        -9.5636089635        0.5167489024        0.8898240809
 H        -9.5276311337        1.7730586294        2.1733163533
 H       -12.0648560377        1.9380510254       -3.7711803236
 H       -10.7417717183        2.9164017834       -4.0296924119
 H       -13.6157441516        3.7871946120       -3.3645310831
 H       -12.3359562344        4.4479924520       -4.4260962913
 H       -12.2955297454        9.3899760468       -3.4780865876
 H       -11.5562544152        8.3929300999       -4.6994493409
 H       -10.3273090696       10.5513168826       -4.3910821409
 H        -9.2673276526        9.2404109820       -3.6449630148
 H        -9.8836384470        9.5409948168        0.3138139287
 H        -9.2384466389       10.9483066156        1.1780580653
 H        -8.5449010889        9.1615743104        2.4636008125
 H        -7.1234340808        9.7332093984        1.6715053328
 H        -4.5125081728        8.1075646789       -1.3824386130
 H        -5.3409854059        7.0911726865       -2.4065412086
 H        -4.1143418321        6.3682372161       -1.1817266835
 H        -5.4910629745        8.4313965579        2.2221901088
 H        -5.5088001519        9.0780971256        0.5942988398
 H        -4.4501127227        7.7140444380        1.0356210170
 H        -6.9862017736        6.0839052403        2.5349252484
 H        -5.3544899571        5.5282135550        1.8761332893
 H        -6.8570421876        5.0009478474        1.0871311553
 H        -7.3354546948       12.0813883381       -2.6089807487
 H        -8.7244205004       12.7698629472       -3.4247890084
 H        -8.1446351745       11.0243153683       -3.5782445924
 H        -8.6600102906       13.1212240461       -0.8115761321
 H       -10.1120139541       12.4096458429        0.0106885382
 H       -10.2221824425       13.2280456109       -1.5988602822
 H       -14.6856745642        6.5872978535       -3.3528948701
 H       -13.4278271845        6.8628613526       -4.5486497532
 H       -13.7940830816        8.1060521803       -3.5174040805
 H       -14.0547822185        6.2885307457       -0.8011433258
 H       -13.2710860829        7.9114242099       -0.7493255925
 H       -12.4136139218        6.5234472500       -0.1663343469
 H        -8.7821805654        2.6581509018       -3.0611482302
 H        -7.8189595546        2.2097056331       -1.5911368927
 H        -8.5727733180        3.7001047742       -1.6644047600
 H       -10.6786960002       -0.0524678809       -1.1437615264
 H        -9.0016602776        0.1585709595       -0.9659830171
 H        -9.6342171323        0.5346223585       -2.4657297501
 H       -14.7056245300       -1.4610543839        1.1100455750
 H       -14.1449918262        0.1168886781        0.8628516450
 H       -14.8003977279       -0.4372989075        2.5280698368
 H       -13.8093598575       -2.8454263181        3.2031292584
 H       -13.7955829170       -1.6212140486        4.2946331414
 H       -12.2306848177       -2.3311908082        3.8620551232
 H        -8.0024705380       -3.5142598269        4.8450305985
 H        -7.5919680013       -2.1479814501        3.7568935909
 H        -6.2666280371       -3.3165933481        4.2451880419
 H        -5.6259897430       -3.8536234522        1.9519242947
 H        -6.5870092634       -2.5700443389        1.3612055725
 H        -6.7854025089       -4.1958268803        0.6230105967
 Na       -9.5120640034        5.5912277146       -0.6095832810
