117

 C       -10.0437601094       -1.2529330912        7.2384159194
 C       -11.1845445475       -1.1508614920        6.1739999015
 O       -12.3023368553       -1.6925612697        6.2884776874
 C       -10.8135303417       -0.5535438028        4.7719678076
 C       -11.7447431421       -0.9067938064        3.5848384308
 O       -11.9593555153       -0.1389457043        2.6371983710
 C       -12.3540020131       -2.4017594007        3.5444219913
 C       -13.3155009979       -2.5354905364        2.3373621817
 C       -14.6641118838       -1.8557372888        2.4437729743
 O       -15.4657205455       -2.1004851832        3.2589107424
 C       -15.1527634657       -0.6734351947        1.2096344153
 C       -14.9034957727        0.6445909508        1.8571651339
 O       -13.9346620522        1.3662186242        1.5708416885
 C       -16.0035919623        1.2156373993        2.7347698946
 C       -15.5329199633        2.5807849131        3.5203564378
 C       -15.9334933768        3.7984745916        2.6521128336
 O       -17.0393446239        3.8160036544        2.1380644325
 C       -14.9298551218        4.9300075406        2.1848198244
 C       -13.8790462646        4.0971818785        1.2547484885
 O       -12.8940840052        3.6959083028        1.8902129024
 C       -14.2035835033        4.1367146328       -0.2041113694
 C       -12.8978084431        4.2863221139       -1.0912126632
 C       -11.8799903985        3.1112508725       -1.2034491233
 O       -12.1577667832        1.9085846739       -1.1041833456
 C       -10.1687899933        3.4649810795       -1.6511315328
 C        -9.3872370444        3.7738340925       -0.1935757268
 O        -9.7061607033        3.1619216458        0.8241358741
 C        -8.5356758580        4.9562852009       -0.2557718518
 C        -7.1760543941        4.8420114071       -1.0116760570
 C        -6.6485343584        6.3841544631       -1.1782659518
 O        -7.3535133856        7.2784815717       -0.9410764809
 C        -5.0322134827        6.5444333125       -1.4129495590
 C        -5.0407031255        6.4106380396       -2.9764940618
 O        -6.1213645741        6.0486865074       -3.5016745288
 C        -3.7470549926        6.4983736926       -3.8277683169
 C        -3.9457472120        7.5992597621       -4.8974347329
 C        -3.0800493971        7.2068307094       -6.0617046899
 O        -3.3422901432        6.1367953530       -6.5795534254
 C        -2.2624674054        8.2922544298       -6.8287666607
 C        -1.5930659237        8.0501916212       -8.3386329273
 O        -1.3258099858        9.0357508940       -9.0357977664
 C        -1.2607101915        6.6101829291       -8.8725288320
 C        -3.3730437805        9.3924259273       -7.2987824334
 C        -1.1179308419        9.1037440418       -5.9793457300
 C        -4.8479096684        8.1362201841       -1.1691685383
 C        -4.0914016683        5.5904829865       -0.7079714402
 C        -9.6254954283        2.2441153739       -2.3454656502
 C       -10.2656326149        4.6815617924       -2.5973123629
 C       -15.7617667635        6.0560097825        1.3312790632
 C       -14.1966354333        5.5918164886        3.3903236819
 C       -14.3095003805       -0.9898328202       -0.0989118581
 C       -16.6796151902       -1.0758836878        0.9229850787
 C       -10.6601424923        0.8553802872        5.0080960057
 C        -9.5051079647       -1.0729470647        4.2288448829
 H        -9.3820941463       -2.0507085952        6.7778720168
 H       -10.5286285442       -1.5169849450        8.0942873760
 H        -9.3697361272       -0.4520014958        7.3828440134
 H       -12.8379703746       -2.5942797209        4.6269832750
 H       -11.5782178922       -3.1869617247        3.5410376447
 H       -13.4907654204       -3.6095555568        2.1260849332
 H       -12.7550224127       -2.2513126144        1.5125307808
 H       -16.1911161474        0.3714847321        3.4546483211
 H       -16.9567287399        1.6148476748        2.2329060721
 H       -14.5894087809        2.4698115585        3.9820422479
 H       -16.1295403858        2.5565099554        4.4314720045
 H       -14.7932449945        5.0066795450       -0.5099026337
 H       -14.8099194609        3.3277486674       -0.4933037159
 H       -12.4008375675        5.2334422212       -0.8045601738
 H       -13.4199221902        4.4981385156       -2.0702140967
 H        -8.2065996689        5.2840786952        0.8241076583
 H        -9.1510190874        5.7623439853       -0.6741310531
 H        -7.4721293226        4.2529837839       -1.8752217159
 H        -6.4659558318        4.1058764860       -0.5600913412
 H        -3.7635205091        5.4792872677       -4.1865327569
 H        -2.9267023374        6.9031077692       -3.2442836588
 H        -3.7770030045        8.7057126386       -4.5278885505
 H        -4.9894916397        7.6550918524       -5.1003166085
 H        -2.0825219804        6.0214176554       -8.5823912919
 H        -0.3577717790        6.2718566440       -8.3317715860
 H        -0.9867985116        6.4792585531       -9.9673712973
 H        -4.0549254367        8.7707140894       -7.9460695849
 H        -2.9755295018       10.0526498209       -8.0555802576
 H        -4.0655878400        9.9131362210       -6.5585718414
 H        -1.2703697535        9.1346311682       -4.9326504967
 H        -0.9103874553       10.0535766581       -6.3690177686
 H        -0.2303504793        8.3976717973       -6.0368321162
 H        -4.0319317141        8.4868521688       -1.6974588514
 H        -4.7253929421        8.1427974681       -0.1540137719
 H        -5.6612857611        8.7752803497       -1.3095462823
 H        -3.7457859544        6.0750165435        0.2311480839
 H        -3.2929684678        5.2343236125       -1.3039087375
 H        -4.5319101134        4.5764236027       -0.5655459146
 H        -9.2662605053        2.3612632205       -3.3286725007
 H       -10.3174494303        1.4222488412       -2.3567871407
 H        -8.8448789886        1.8210880778       -1.6230134093
 H        -9.3134315756        5.2257887199       -2.6753679453
 H       -11.1651013943        5.3106802550       -2.4497663173
 H       -10.3798991639        4.3461847228       -3.6872046237
 H       -16.4538007674        6.5492795656        1.9641162042
 H       -16.3576130604        5.5664067285        0.4580537783
 H       -15.0364841809        6.7152917747        0.8111217953
 H       -14.0891988031        4.7198785336        4.0547927448
 H       -14.8700455712        6.2956976172        3.8161093177
 H       -13.2473460922        6.0626984115        3.0637855295
 H       -14.6321052133       -0.4994864426       -1.0037694584
 H       -14.1897798618       -2.0264037318       -0.3423133485
 H       -13.3624495684       -0.6304663919       -0.0488639687
 H       -16.7091657663       -2.1201131315        0.4797233137
 H       -17.3791871287       -0.4168042521        0.3496883667
 H       -17.1238228824       -1.1441743705        1.9296429487
 H       -10.7523990522        1.5144495511        4.1122670847
 H        -9.8470562357        1.3298354769        5.4597780599
 H       -11.5556495364        1.1711282026        5.6323667077
 H        -9.1071625810       -0.7626834986        3.2942431594
 H        -9.6031206098       -2.1562906542        4.3220822712
 H        -8.7192358162       -0.8971140069        5.0129472270
 Na      -11.6624331590        1.7940670587        1.3933728628
