117

 C       -10.1338713189       -1.0042577059        7.4106870012
 C       -11.1018109565       -1.1322575236        6.1755458397
 O       -12.2714878115       -1.4609672768        6.3417852347
 C       -10.5257058565       -0.5313625328        4.6891712367
 C       -11.6041118276       -0.8651864931        3.6185939787
 O       -11.9626935067        0.0317279895        2.7931428425
 C       -12.1898914848       -2.2491316459        3.3012348944
 C       -13.0236630736       -2.3293169399        1.9876509924
 C       -14.4540800031       -1.8507639088        2.2580342050
 O       -14.9076764306       -2.1774174997        3.3036704252
 C       -15.2576964200       -0.8718556272        1.2657833679
 C       -15.1318244782        0.6543649821        1.8369148449
 O       -14.3254356576        1.4790450900        1.4002415254
 C       -15.9721984706        1.2375627099        3.1446449087
 C       -15.4787235838        2.6620938210        3.4769672535
 C       -16.1596743731        3.7637611372        2.5479774292
 O       -17.3811016593        3.8568052452        2.4332007867
 C       -15.2521588998        4.8965474074        1.9317531727
 C       -14.0315083793        4.3277735133        1.1551505662
 O       -12.9068134200        4.1553179087        1.6199912009
 C       -14.2852410062        3.8085840598       -0.3105018447
 C       -13.0608080941        4.1260203705       -1.1303879496
 C       -11.7855423799        3.2287150191       -1.1200450466
 O       -11.7907146031        2.0432394361       -0.7939812868
 C       -10.3953047958        3.7252921530       -1.5216733776
 C        -9.7296952788        3.9758699839       -0.0460116614
 O       -10.0808240777        3.3692299456        0.9405319350
 C        -8.5467904802        4.9957132969        0.0962660701
 C        -7.3542739385        5.0119096962       -1.0183488630
 C        -6.6975665761        6.4201369905       -1.0618906456
 O        -7.2567683643        7.3597644458       -0.6203272579
 C        -5.2578953205        6.7074836295       -1.6429551113
 C        -4.9912014587        6.1510387319       -3.1047371824
 O        -5.9484483481        5.7125995302       -3.7278249165
 C        -3.4749278256        6.2511344305       -3.7068072417
 C        -3.4826062319        7.2675963004       -4.8968466411
 C        -2.9191201697        6.8268639532       -6.2986986345
 O        -3.0474574440        5.6741589696       -6.6881978091
 C        -2.2355995048        8.0965283309       -7.0734223269
 C        -1.4725342483        7.6510505711       -8.4450713580
 O        -0.9889457213        8.6163990426       -9.0663417846
 C        -1.0523573679        6.2715725132       -8.6190378179
 C        -3.1301915373        9.3274946556       -7.1843000454
 C        -1.0321060277        8.5312838448       -6.2331602588
 C        -4.8161223478        8.1324353840       -1.6034909522
 C        -4.2912965791        5.7565564257       -0.7976673753
 C        -9.6418812134        2.3829109482       -1.9923479360
 C       -10.4791475140        4.9238480776       -2.5076620279
 C       -16.0628066039        5.9411281709        1.0837707486
 C       -14.6282780376        5.5767908021        3.2081852832
 C       -14.6432500813       -0.6144039694       -0.1069636234
 C       -16.8438019562       -1.1740500461        1.1645157394
 C       -10.5007892583        1.0115384617        4.8582184885
 C        -9.2175520054       -1.1865586088        4.4396921196
 H        -9.0685516397       -1.0740787053        6.9502279478
 H       -10.3409527320       -1.7932907795        8.1329338138
 H       -10.2015814634        0.0205379244        7.9229183772
 H       -12.9543852122       -2.5487673838        4.1698692825
 H       -11.4113334272       -2.9413789788        3.4410737774
 H       -13.2603927899       -3.4247155936        1.6958349787
 H       -12.5138447650       -1.9710930761        1.0872956655
 H       -15.7674536361        0.5864375710        4.0295241695
 H       -17.0110176550        1.2912312378        2.9956529579
 H       -14.4138115096        2.6152670099        3.3955167855
 H       -15.6234944457        2.8224996396        4.5384333765
 H       -15.1660475630        4.4477588698       -0.7825076596
 H       -14.6006753318        2.6849850946       -0.3806825840
 H       -12.9085144418        5.0988789306       -0.9529696671
 H       -13.2700746960        4.0786440732       -2.2059968576
 H        -7.9666268578        4.7299334207        0.9619463634
 H        -8.9870920287        5.9709996513        0.1976409089
 H        -7.6319992967        4.9083297406       -2.0187901832
 H        -6.7239042867        4.1442167306       -0.8482484027
 H        -3.3500664206        5.3034510047       -4.1629684953
 H        -2.8044498815        6.5885960214       -2.9413053953
 H        -2.8756617798        8.1520057173       -4.6837531683
 H        -4.4168815987        7.7133320299       -4.9625399179
 H        -1.2619683667        5.6712871242       -7.7850825740
 H        -0.0277282214        6.3166466060       -8.9013936357
 H        -1.5724141235        5.7853010784       -9.5029564962
 H        -4.0544100085        9.3315601588       -7.6728863830
 H        -2.5586667887       10.1332746970       -7.5755619416
 H        -3.2313674101        9.6290420934       -6.1413756947
 H        -1.3784283190        9.4001965970       -5.6100851424
 H        -0.3458377788        9.0418343722       -6.8442037066
 H        -0.6067356591        7.7757238271       -5.5287512357
 H        -3.7150508298        8.2156091931       -1.9438093047
 H        -5.0291019077        8.7804677548       -0.6858688011
 H        -5.4600444390        8.5595476864       -2.4502954219
 H        -4.5519485992        5.8963655171        0.2379800040
 H        -3.2524550836        6.0287648738       -0.9636899048
 H        -4.3067448934        4.7077504669       -1.0885766935
 H        -8.8229755411        2.5698923986       -2.5991578266
 H       -10.3101193702        1.8348404827       -2.6571009559
 H        -9.3833709803        1.6907925271       -1.1467453121
 H        -9.9925555936        4.8027301751       -3.4652890846
 H        -9.9915823405        5.7861751515       -1.9887309865
 H       -11.5490338499        5.1170716888       -2.7818488491
 H       -16.1639821102        6.7347261611        1.7661910296
 H       -17.0524050787        5.5531992892        0.8314714736
 H       -15.4863470077        6.3399443871        0.2364646491
 H       -13.9368158284        4.9183326503        3.7514113242
 H       -15.4464475262        5.9593640642        3.7627538019
 H       -14.3159814052        6.5062989220        2.7567523661
 H       -15.2876260584        0.1494389098       -0.7091609726
 H       -14.6967598394       -1.4574981179       -0.8308044322
 H       -13.6410201001       -0.2255325429       -0.1934573918
 H       -17.0157959132       -2.2277147673        0.8945277729
 H       -17.1164369769       -0.8286232219        0.2213914959
 H       -17.5681671848       -0.9563292343        1.9904826835
 H       -10.0068388024        1.4810620832        3.9155611255
 H       -10.0814972677        1.4917417449        5.6649109356
 H       -11.4564988819        1.4676488792        4.7146850366
 H        -9.0474836663       -1.1020091384        3.3553515877
 H        -9.2995867887       -2.3264389205        4.5424654715
 H        -8.3075902360       -0.7880203923        4.9834997572
 Na      -11.8898214450        2.0399509256        1.5732630344
