117

 C       -10.1998191941       -0.9359818675        7.3694176535
 C       -11.1266919260       -0.9864903263        6.0964361552
 O       -12.2436207890       -1.4576175671        6.2246959496
 C       -10.5729577462       -0.4577249000        4.7373328672
 C       -11.5843471560       -0.7579711592        3.5518010157
 O       -11.9173549836        0.1399104248        2.8218183188
 C       -12.0909193381       -2.2398630671        3.2145478000
 C       -12.9766848368       -2.2807763204        1.9907494610
 C       -14.4200368995       -1.7825354183        2.2859055827
 O       -14.9486695820       -2.0316859242        3.3175441497
 C       -15.3040746682       -0.6718518255        1.2592716672
 C       -15.1300237268        0.6405861422        1.9560920145
 O       -14.3404731533        1.3929319449        1.4071727031
 C       -15.9267970444        1.1914124828        3.1549567793
 C       -15.4937860271        2.6295635095        3.4327458958
 C       -16.1797127480        3.6978086236        2.4614005388
 O       -17.3435744474        3.7609575276        2.4945882536
 C       -15.2864750493        5.0025844208        1.8991482075
 C       -14.0900515118        4.3877388825        1.0855981606
 O       -12.9853332426        4.2609875949        1.5865628860
 C       -14.2706304188        3.9493060480       -0.3747989909
 C       -13.0264500905        4.0755531162       -1.2593523031
 C       -11.8949993837        3.0852596841       -0.9665752539
 O       -12.0206714090        1.8985731968       -0.5742697917
 C       -10.4139893381        3.7651946542       -1.3586457635
 C        -9.5856909832        4.1466151172       -0.0570367771
 O        -9.9968765170        3.6359992591        0.9923823020
 C        -8.5154452221        5.1014909013        0.0678361740
 C        -7.4109421693        5.0843334632       -0.9850842727
 C        -6.7399582051        6.4887604543       -1.0585498733
 O        -7.2752085353        7.4187937295       -0.5013878954
 C        -5.2311862181        6.6451265625       -1.7107717526
 C        -5.0057876251        6.0205558989       -3.1438370226
 O        -5.9156189084        5.5599443580       -3.8241389311
 C        -3.6246629786        6.0165684064       -3.8093012726
 C        -3.5504327684        7.1567629025       -4.8650694329
 C        -2.8576815805        6.8588300997       -6.2512647781
 O        -2.9177384459        5.7116408596       -6.6509241681
 C        -2.1117150222        8.0377472301       -7.0238421576
 C        -1.3809070997        7.5511083874       -8.4360333702
 O        -1.0484455525        8.4350370326       -9.1552792852
 C        -1.0030051671        6.1268811820       -8.5596706212
 C        -3.0330248527        9.2448102220       -7.2710590745
 C        -0.8386206745        8.3621463594       -6.2320079202
 C        -4.8737679417        8.1657422969       -1.6978863481
 C        -4.3447732558        5.7002513298       -0.6649024805
 C        -9.6552981545        2.6535155835       -2.2667874442
 C       -10.3902582176        4.8920222006       -2.3306581638
 C       -16.1039254157        5.7721866457        0.9504477755
 C       -14.8086392298        5.5633286583        3.2514287261
 C       -14.8036462406       -0.6538269396       -0.1193781100
 C       -16.7147304171       -1.2197588973        1.3228736832
 C       -10.2933261638        1.1083576024        4.9023299659
 C        -9.2278753014       -1.2060023427        4.3907817543
 H        -9.0771446120       -0.8558687438        7.1416130421
 H       -10.4782347709       -1.8423810705        7.9156976317
 H       -10.4464880752       -0.0559523787        7.9832156955
 H       -12.6641419708       -2.6602335789        4.1096888987
 H       -11.1504449092       -2.9263751939        3.2383366848
 H       -13.0284647248       -3.2770786983        1.5415713750
 H       -12.6364746807       -1.6779894224        1.1629735850
 H       -15.6913250376        0.6075756481        4.0575767155
 H       -17.0502729102        1.0488969902        2.9262704966
 H       -14.4616161811        2.5652583139        3.6048667499
 H       -15.9588901895        2.8180694352        4.3750941524
 H       -15.1463142859        4.5787457161       -0.7052392535
 H       -14.5680078781        2.8960573793       -0.5161006587
 H       -12.6107995192        5.1730141755       -1.1178337220
 H       -13.1911084686        4.0067291605       -2.3051980963
 H        -7.9495220658        4.9583287137        1.0521268813
 H        -8.8788176464        6.1030819803        0.0076981222
 H        -7.7191525892        5.0164773648       -2.0105938032
 H        -6.7265701201        4.2976822016       -0.8605572392
 H        -3.6286447931        5.1409044323       -4.4122843496
 H        -2.8652828675        6.1709342939       -3.0773785529
 H        -3.1213030006        8.1105405867       -4.4289872304
 H        -4.5354018075        7.4754187919       -5.0910633487
 H        -0.7782674750        5.6441984186       -7.6386626732
 H        -0.1779892115        6.1374031252       -9.2939252277
 H        -1.8210346674        5.5455052263       -9.0032296289
 H        -3.8718055889        9.1066157402       -7.9978377841
 H        -2.4309946427       10.0358991440       -7.6507153396
 H        -3.3946404272        9.6752551632       -6.3295671443
 H        -1.1181625912        9.2305393103       -5.6992322868
 H        -0.1368537502        8.8376481799       -6.9216377555
 H        -0.3722817315        7.6362729554       -5.4868494108
 H        -3.8457229595        8.4315203557       -1.5791159640
 H        -5.4764658199        8.6323500433       -0.9416809235
 H        -5.3250348192        8.5506472304       -2.6550275771
 H        -4.9109484214        5.6567835275        0.2640257796
 H        -3.3550651140        6.0641275772       -0.4880047749
 H        -4.2546512527        4.6561585364       -1.0406158926
 H        -8.6039207744        2.8638124618       -2.4423996760
 H       -10.0474988589        2.5796822669       -3.2221544671
 H        -9.7004627547        1.6912689334       -1.7446262520
 H        -9.7653460213        4.6221807074       -3.2651622203
 H        -9.7038975692        5.5625076896       -1.8490640762
 H       -11.3392771770        5.4024318256       -2.8051277255
 H       -16.5212072313        6.6347641071        1.4011286118
 H       -16.9215999027        5.0696699237        0.5384774074
 H       -15.4236962114        6.1870829408        0.2033737934
 H       -13.9750976250        4.9192303730        3.6156572289
 H       -15.6603691864        5.5659899397        3.8785254377
 H       -14.7189004769        6.6267431948        3.0950205530
 H       -15.0196438395        0.1671892002       -0.7776187131
 H       -15.2325163469       -1.5215141025       -0.7032527716
 H       -13.7652731263       -0.7453088746       -0.2262788581
 H       -16.7329582258       -2.1893717849        0.7639863651
 H       -17.4358222935       -0.7505153716        0.6177569694
 H       -17.0835258691       -1.4362647735        2.2844804577
 H        -9.7536667852        1.2972692153        4.0440581557
 H        -9.6975670535        1.4541406230        5.7266674625
 H       -11.0576309902        1.9709454154        4.8044934100
 H        -8.7735962811       -1.0162401339        3.3564386224
 H        -9.3226984537       -2.3421178153        4.3970844914
 H        -8.4667166753       -0.8940537648        5.2040719431
 Na      -12.0068310882        2.0285452750        1.6323635009
