117

 C       -10.5378351540       -0.5536448006        7.3956631077
 C       -11.1416048794       -0.8044474481        5.8645136817
 O       -12.1937300280       -1.4500891352        5.7769622015
 C       -10.4105641349       -0.4254065708        4.6352037324
 C       -11.3720926542       -0.4868743668        3.3776454412
 O       -11.7963647466        0.6386702931        3.0174819976
 C       -11.9078662928       -1.8354380425        2.9964770015
 C       -12.9334294896       -1.6932922818        1.8949588160
 C       -14.2997966557       -1.4833522514        2.4519572106
 O       -14.5593654076       -1.6608219893        3.5944910898
 C       -15.3446145391       -0.8527743802        1.5571162516
 C       -15.0441345234        0.5737475120        1.8363180109
 O       -14.2322959333        1.2861162212        1.1992901764
 C       -15.8365456723        1.1773772642        3.1568152933
 C       -15.4921195154        2.6298078420        3.5384547885
 C       -16.3124560128        3.5663347048        2.4549489922
 O       -17.3604914785        3.1781296597        2.0440575837
 C       -15.5629920919        4.9022425606        1.8244780435
 C       -14.3591452139        4.4203713312        1.0801168784
 O       -13.2943792089        4.4084710747        1.6744215722
 C       -14.3576959669        3.7044349253       -0.3093499302
 C       -13.1894423368        4.2335164019       -1.1325925319
 C       -11.8980580592        3.4357039688       -0.9716637790
 O       -12.0095985528        2.2471542975       -0.6113116814
 C       -10.5261318922        4.0641303405       -1.3487332382
 C        -9.7124345657        4.2658585077        0.0829332591
 O       -10.0263618427        3.4948341792        0.9662047309
 C        -8.4548616842        5.1685083356        0.1677839522
 C        -7.4205057352        5.1640974229       -1.0918557300
 C        -6.7011916672        6.5141666923       -1.1521561492
 O        -7.1971964758        7.4990388377       -0.7331078392
 C        -5.1564226865        6.5156122202       -1.7703999586
 C        -5.2770547837        5.8838725031       -3.2090508353
 O        -6.2522505926        5.1767531400       -3.4705336078
 C        -4.0322956487        5.9187019362       -4.1559793624
 C        -3.6286677307        7.1371441202       -5.0449283335
 C        -2.6640425784        6.5520498411       -6.1250020411
 O        -2.6850593203        5.3549402197       -6.3752892460
 C        -1.7290966957        7.5790007345       -6.8406045450
 C        -1.3128603452        7.0251626890       -8.2976175474
 O        -1.5665208552        7.6827172426       -9.2886174078
 C        -0.5565846436        5.6792878207       -8.4600787534
 C        -2.4722452904        9.0795985524       -7.0782727348
 C        -0.5835949224        8.1652006115       -5.9093046499
 C        -4.6747049576        8.0034047695       -2.0685446600
 C        -4.1885495671        5.7497055518       -0.8611269431
 C        -9.6633880423        2.8471424716       -1.9150197977
 C       -10.5923303298        5.3931139171       -2.3852983368
 C       -16.7083990333        5.5874779299        0.9437804267
 C       -14.9991467374        5.8638960515        2.9444327316
 C       -15.0530134403       -1.1218204061        0.0420263470
 C       -16.9006825014       -1.1482596963        1.6518927331
 C        -9.9002960173        0.9891018600        4.7332668604
 C        -9.1791712324       -1.3618909279        4.3953406950
 H        -9.3946266314       -0.3088349518        7.4943666772
 H       -10.4958741148       -1.5553049483        7.7321196717
 H       -11.0872995051        0.1532389926        8.0501423169
 H       -12.4333143461       -1.9776978532        4.0142665928
 H       -11.2518728755       -2.6640632243        2.9098766963
 H       -12.9547388133       -2.8066212028        1.5391229416
 H       -12.7025380433       -1.0663931331        1.0255901999
 H       -15.5958797305        0.4852212013        3.9659773719
 H       -16.8851160765        1.1217480399        3.0951630228
 H       -14.4052208259        2.7176439640        3.5051481194
 H       -15.8852893722        2.7358688633        4.6041406826
 H       -15.2595967349        4.1823118453       -0.8920398358
 H       -14.4167235933        2.5783141957       -0.2260413349
 H       -12.9983154997        5.2476127571       -0.8085147700
 H       -13.4569505545        4.3872655077       -2.1387356036
 H        -7.8620207063        4.9619890951        1.0792539575
 H        -8.7436803121        6.2360552465        0.1983766759
 H        -7.8101637311        4.8962199580       -2.0377423559
 H        -6.6038929342        4.3959390543       -0.8820141079
 H        -4.2288917228        5.1402635610       -4.9209320518
 H        -3.0988321189        5.7187519674       -3.5319466554
 H        -2.9639340345        7.7896734940       -4.3987180721
 H        -4.3596168546        7.7209685728       -5.4458908265
 H         0.4508785569        5.8522607487       -8.6968161611
 H        -0.9913859457        5.0263468467       -9.2322252602
 H        -0.4733222705        5.1616928976       -7.4603423396
 H        -3.4197122289        8.9308079170       -7.5893446631
 H        -1.8763054967        9.6425682950       -7.7465904880
 H        -2.7733471114        9.7028630034       -6.2166817653
 H        -0.7693209598        8.2039267353       -4.8336499907
 H        -0.2669974612        9.0766611521       -6.3011291093
 H         0.3618436382        7.5607392306       -6.1333570662
 H        -3.6497741665        7.8421823698       -2.4661040279
 H        -4.4131614556        8.7133735457       -1.2663890077
 H        -5.4035646466        8.5660263868       -2.8104695788
 H        -4.1093698359        6.1358809853        0.1871130356
 H        -3.1698878182        5.7592046446       -1.2467158924
 H        -4.6808997017        4.7474170626       -0.7117431197
 H        -8.5941612183        2.7408812257       -1.7348480182
 H        -9.8292282585        2.7254084069       -2.9821790633
 H       -10.0714890399        1.9227473132       -1.3341708380
 H        -9.8468517069        6.0682895433       -2.0151549452
 H       -11.5007099888        5.8600699550       -2.4236642921
 H       -10.2496929562        4.9277592804       -3.3357855873
 H       -17.6425924414        5.4110569724        1.3341751487
 H       -16.6904902470        4.9505220492        0.0444160611
 H       -16.6025055563        6.6384653923        0.8763484917
 H       -14.3399677561        5.1546126740        3.4730590131
 H       -15.8011421560        6.1796145875        3.5292815619
 H       -14.5122523739        6.7062761716        2.4467863954
 H       -15.7570081285       -0.6024892824       -0.7114164454
 H       -14.9989530333       -2.2232830461       -0.2905853213
 H       -14.1093876171       -0.6637266727       -0.1958052554
 H       -17.2683731974       -1.9124686522        0.9485914153
 H       -17.5094220407       -0.3255259965        1.3863765892
 H       -17.1570138562       -1.4887979729        2.6498528100
 H        -9.6796227584        1.5472731708        3.8496786164
 H        -9.1152494414        0.9379257556        5.4206388753
 H       -10.5912751261        1.6735041755        5.3431619262
 H        -8.6840311471       -1.1266650361        3.5045354958
 H        -9.4535116903       -2.4026383733        4.3892502209
 H        -8.5660709141       -1.1729561133        5.2830843255
 Na      -11.8972404955        2.6158487209        1.8127864059
