117

 C       -10.6436475712       -0.3008205949        7.3261568038
 C       -11.1756234884       -0.6763282966        5.9645773683
 O       -12.0565634384       -1.4935985415        5.8167851028
 C       -10.3133195908       -0.3311581451        4.5877076666
 C       -11.1989009765       -0.3141757053        3.3465610536
 O       -11.6792782885        0.7457627563        2.9710406430
 C       -11.6730164762       -1.6565680865        2.7758878230
 C       -12.8530637906       -1.5850727104        1.8391751487
 C       -14.2936331290       -1.3778536041        2.4495390539
 O       -14.5593124269       -1.5690473518        3.6206543774
 C       -15.4549726870       -0.8775227294        1.5744187818
 C       -15.1110591719        0.7026435958        1.9249378474
 O       -14.2077805292        1.2639458995        1.3452026123
 C       -15.5740678036        1.2348181588        3.2700948605
 C       -15.4487295456        2.7886290935        3.2834881902
 C       -16.3487478415        3.4294331311        2.2148036732
 O       -17.2966898743        2.8141138784        1.7574361930
 C       -15.7519917896        4.9324044440        1.7485386891
 C       -14.4685110729        4.5110772401        1.0826857274
 O       -13.4251678029        4.3939394316        1.7553318676
 C       -14.5325483324        3.9532586034       -0.3797185436
 C       -13.2663658509        4.5349307761       -1.1126381177
 C       -11.9702120446        3.7020694016       -1.0019436706
 O       -12.0624132292        2.5846448180       -0.5601110258
 C       -10.5353457017        4.1353808657       -1.3672450073
 C        -9.6183650412        4.3479486858        0.1012553248
 O        -9.8805872070        3.5826246018        1.0093980887
 C        -8.4629758360        5.5068222891        0.1577423431
 C        -7.2585424021        5.1580652160       -0.7846650379
 C        -6.5977039373        6.5662876809       -1.1899133660
 O        -7.0894840879        7.6744232861       -0.8826554244
 C        -5.2377846416        6.6191515531       -1.9517522716
 C        -5.3988905013        5.6898884509       -3.3476438839
 O        -6.4036990959        5.0525581518       -3.5737425726
 C        -4.1622339932        5.5356848179       -4.2460142292
 C        -3.7262899267        6.7479933290       -5.0879090755
 C        -2.6009989545        6.4255582908       -6.0661290054
 O        -2.3505590647        5.2681203209       -6.3143930581
 C        -1.6968147500        7.4449521192       -6.7170256999
 C        -1.2641741794        6.8216203611       -8.2621272581
 O        -1.8143087538        7.2078235720       -9.2692338936
 C        -0.2438215577        5.6621569841       -8.1990449960
 C        -2.5169567184        8.8194229123       -6.9479863065
 C        -0.3188708975        7.5399331687       -5.8691430257
 C        -4.7989285797        8.0967619257       -1.8921769233
 C        -4.1188244429        5.6507443115       -1.0492022931
 C        -9.7683614247        2.8981940707       -2.1781500948
 C       -10.5654459763        5.4080426901       -2.2039583317
 C       -16.8602192755        5.5854428112        0.8762003094
 C       -15.5868266918        5.9372240867        3.0069957362
 C       -15.3357422353       -1.1667379154        0.0295821332
 C       -16.8309057472       -1.3557361264        2.0830040284
 C        -9.5863905958        1.0092278309        4.8438864240
 C        -9.2233866986       -1.3940870942        4.4559898710
 H        -9.6073879504        0.0030439771        7.2038174633
 H       -10.5427938844       -1.0672932392        8.1233904942
 H       -11.2214640132        0.5978242211        7.5339562901
 H       -11.6676747299       -2.3433049771        3.6417407480
 H       -10.7548949698       -2.0062572834        2.1716770298
 H       -12.7876697552       -2.4259385729        1.2092807948
 H       -12.7528950271       -0.6421620140        1.2447709084
 H       -15.2629667909        0.5102242882        4.0571481946
 H       -16.6973191007        1.0754308480        3.2925718140
 H       -14.4546802985        3.1075125734        2.9564644231
 H       -15.7611688574        3.1487573624        4.2087710148
 H       -15.3639078629        4.2167611193       -0.9507482441
 H       -14.4425948139        2.8632959077       -0.1871666722
 H       -13.0777200211        5.6053904124       -0.9458112769
 H       -13.5513477204        4.5689522723       -2.2653451226
 H        -7.9918156103        5.5275728893        1.1464930725
 H        -9.0479700863        6.4755296718        0.0087153201
 H        -7.6219404112        4.7165087844       -1.7296171446
 H        -6.7982905045        4.3474627250       -0.2933277905
 H        -4.1912421429        4.6699697140       -4.9055019185
 H        -3.3446828127        5.3343606551       -3.5613007941
 H        -3.3544012836        7.4603365451       -4.4185925721
 H        -4.6698853982        7.1515300715       -5.6618300286
 H         0.5258054313        5.6416930190       -9.0253164031
 H        -0.8111129705        4.7741531212       -8.3174779481
 H         0.2753609884        5.6761417833       -7.2588415079
 H        -3.4930444929        8.5508190578       -7.2587940306
 H        -2.0006751057        9.4633036573       -7.6790740409
 H        -2.7312022697        9.4224482417       -6.1138694722
 H        -0.4976718673        8.0439318431       -4.9028387113
 H         0.6156411546        7.9253172701       -6.3872783099
 H        -0.0953531403        6.5306725282       -5.7249732818
 H        -3.8186992194        8.4377296927       -2.2698754192
 H        -4.6960603901        8.3785320866       -0.8288578119
 H        -5.6397259741        8.6240275433       -2.2326522181
 H        -3.4510936302        6.3101997621       -0.5766186044
 H        -3.3735166326        5.2875305892       -1.7319258186
 H        -4.5537232999        5.0148597775       -0.3396087217
 H        -8.9459137869        3.3224159643       -2.7220607230
 H       -10.5201268487        2.5455243772       -2.9179517979
 H        -9.3375614676        2.0855219561       -1.7229848526
 H       -11.4747604256        5.9228934969       -1.8083513269
 H       -10.9203529802        4.9267693871       -3.2444120925
 H        -9.6701006113        6.0381468726       -2.3079085604
 H       -17.7444619914        5.8429084698        1.5180420637
 H       -17.2103513234        4.8303506657        0.2685936975
 H       -16.4597126941        6.5129129449        0.4298585734
 H       -15.5025823038        5.2533377610        3.8069619076
 H       -16.5377157881        6.5428392549        3.1666374350
 H       -14.6295672431        6.4474241000        2.8776476594
 H       -16.2369066357       -1.5550569074       -0.4058351846
 H       -14.5801814843       -1.8882472448       -0.1601636194
 H       -15.0412986754       -0.2756270665       -0.6109550772
 H       -16.9776206087       -2.3904586570        2.3612298415
 H       -17.6847015221       -1.0715457130        1.4178051344
 H       -17.0203735110       -0.8372015708        3.0680745690
 H        -9.0408114467        1.2042535138        3.8123842607
 H        -8.8552875924        1.0538613128        5.6696778197
 H       -10.1619420488        1.8317257624        4.9181035894
 H        -8.6740066372       -1.0657085866        3.4732842726
 H        -9.5536066991       -2.5014740548        4.3743082077
 H        -8.5225570914       -1.2820892655        5.3233671959
 Na      -11.9201861428        2.6729217448        1.7539219164
