117

 C       -12.5054052490       -1.5180029277       -8.7849387359
 C       -11.6619000587       -1.4641418155       -7.4743880634
 O       -11.6586376098       -2.3649397949       -6.6707489897
 C       -10.7614431381       -0.2657310897       -7.2516250341
 C       -10.9873719175        0.1321968867       -5.6700318376
 O       -11.3684520916        1.2199262875       -5.3823105887
 C       -10.3261544440       -0.8088946351       -4.6244846232
 C       -10.8681427030       -0.4112291943       -3.2717851027
 C       -10.4803226926       -1.4100587706       -2.2163923078
 O       -10.4111319169       -2.6004342399       -2.3822236191
 C       -10.0053290885       -0.6736348950       -0.7931248604
 C       -11.1321372518        0.1715887551       -0.3938697864
 O       -11.3491991308        1.2641586544       -0.9044561812
 C       -11.8974201338       -0.1037638755        0.9240573176
 C       -12.8839858134        1.0242214717        1.2662704697
 C       -12.3906945581        2.4404924406        1.6480718617
 O       -11.4018736959        2.6291556667        2.3008900824
 C       -13.3305304699        3.5893536802        1.1144734220
 C       -13.1680378324        4.9415348219        1.9149826710
 O       -12.3869735136        5.2282550508        2.7791095625
 C       -14.2007675277        6.1057977962        1.4795050263
 C       -13.6609162309        7.5190264242        1.8452070855
 C       -12.2743618574        7.7670324521        1.3120356417
 O       -12.1506295846        7.7207740368        0.0977673715
 C       -11.0851318454        8.2971764017        2.1894629894
 C        -9.8229171742        7.6309976852        1.7583323361
 O        -9.3394239232        6.6278347087        2.3005917400
 C        -9.0415931364        8.1885741339        0.6015842043
 C        -7.6510903067        7.5763787537        0.5912332062
 C        -6.8091688783        8.3083241533        1.6469469459
 O        -7.3097072335        9.1355660261        2.3739775200
 C        -5.3289438276        7.9191852020        1.8187723673
 C        -5.4488889689        6.4560603476        2.3469539301
 O        -5.3679562403        5.5083861831        1.5484587643
 C        -5.7028493048        6.1384171611        3.9099151983
 C        -5.6518297040        4.5442434943        4.1512464028
 C        -6.9027394300        3.9768192063        3.4060708367
 O        -8.0692145512        4.2446426865        3.7518729706
 C        -6.6626819313        2.9516309610        2.2601686528
 C        -7.2852121311        3.7144193969        0.9661185280
 O        -8.4781804912        4.0426974099        0.9541577896
 C        -6.5600337853        3.9660747709       -0.3803117520
 C        -5.2625250544        2.4638727165        2.0347314318
 C        -7.7384372028        1.8769694694        2.5330644880
 C        -4.5518964061        8.0092329392        0.4048470358
 C        -4.5606381883        8.9529536389        2.7635123038
 C       -11.0641859254        9.8913648513        1.9627327137
 C       -11.3122621797        8.0381295390        3.7091195842
 C       -12.9777323774        3.8709136642       -0.3396987742
 C       -14.8345930732        3.1046279347        1.3450043869
 C        -9.6872428814       -1.8001636795        0.2358286028
 C        -8.6762870107        0.0917662145       -1.2052858314
 C        -9.2852654710       -0.6408983268       -7.3772828876
 C       -10.9402837265        0.9984648564       -8.1387011903
 H       -13.1848171460       -2.1704267654       -8.4586952450
 H       -11.8138984300       -1.7967572093       -9.6009749892
 H       -12.9885067408       -0.6011694248       -9.0071857108
 H        -9.2573468227       -0.6076938088       -4.7863322010
 H       -10.5557543019       -1.8198145528       -4.7852110060
 H       -11.9994896501       -0.3557850234       -3.3615466834
 H       -10.3978297094        0.5055349465       -3.1198443238
 H       -11.1356683707       -0.2441738791        1.7051017422
 H       -12.4192806051       -1.0934075270        0.9012636450
 H       -13.3884096315        0.7415227510        2.1937238262
 H       -13.5676606505        1.1303314625        0.4449835414
 H       -15.1113475022        5.7820611964        1.9562960410
 H       -14.4768613735        6.0409033483        0.4044409196
 H       -13.7711310649        7.8780683766        2.8697625151
 H       -14.1731164431        8.3065652293        1.2867537701
 H        -9.0639006928        9.2256186504        0.5503565149
 H        -9.6119077718        7.8948104637       -0.2606761253
 H        -7.2010511305        7.7752783029       -0.3821059159
 H        -7.6432803327        6.5277248214        0.8179871286
 H        -6.5881496466        6.6029270521        4.3346435119
 H        -4.8761610378        6.6262762149        4.4383944312
 H        -5.7093013949        4.3112522129        5.2123667410
 H        -4.6880784269        4.1825269543        3.8320066968
 H        -6.6149900264        3.0098696193       -0.9331115167
 H        -5.4878921792        4.1447235713       -0.5521159817
 H        -7.0877389229        4.6535614428       -1.0688807672
 H        -4.7173652766        2.2453976745        3.0376268899
 H        -4.6790369768        3.2033658008        1.5396848505
 H        -5.3099550720        1.5958105253        1.4411950614
 H        -8.7267147923        2.4053983286        2.5703318298
 H        -7.6307734656        1.3315258330        3.4181495912
 H        -7.7916123824        1.1196842834        1.7433588633
 H        -4.7918810307        8.9689331490       -0.1388926820
 H        -4.8197634203        7.2514714642       -0.3369882006
 H        -3.4977330146        7.9650332790        0.6626083352
 H        -3.4699038779        8.6954139802        2.9418515264
 H        -5.1152875927        8.9491646167        3.7512487931
 H        -4.5518295026       10.0178218931        2.4000398108
 H       -12.0403500679       10.3022405292        2.1064454496
 H       -10.7480307733       10.0617694074        0.9036076263
 H       -10.3990487697       10.4358375602        2.5978242699
 H       -11.1859684045        7.0086399782        3.8579642055
 H       -12.1975619697        8.3429580512        4.2106709188
 H       -10.5582173508        8.5599994302        4.2893438890
 H       -12.6013233355        4.9077558312       -0.3742498328
 H       -13.9989690704        3.8782742022       -0.7977698778
 H       -12.4283385379        3.1452992734       -0.8244072704
 H       -15.1989758257        2.4861748807        0.5299560013
 H       -15.4396767052        3.9594636473        1.3380585659
 H       -14.7377565635        2.5946060157        2.2534104532
 H        -8.9483778865       -2.5105438671       -0.2255912205
 H       -10.6487989862       -2.4203140326        0.4056750870
 H        -9.3394877066       -1.5215224093        1.2439116009
 H        -8.4260337292       -0.1686290641       -2.2232761327
 H        -7.7859087112       -0.1642980346       -0.6159715782
 H        -8.7866323193        1.1768959355       -0.9551327506
 H        -8.9092189227       -1.4043846714       -6.7401274484
 H        -8.6160529336        0.2386286145       -7.4028089182
 H        -9.1259799015       -0.9819968656       -8.3830355816
 H       -11.9858891597        1.3355584527       -8.1054884456
 H       -10.5405235328        0.7869216171       -9.1251827030
 H       -10.3370515499        1.7375578547       -7.5963280448
 Na      -10.1816032207        4.6287557544        2.6456378614
