117

 C       -10.6674292517       -0.0747276213        7.3258399881
 C       -11.0922858173       -0.6666493482        5.9436280069
 O       -11.9612835713       -1.5277613454        5.8275750087
 C       -10.2688492599       -0.3048281004        4.5854945930
 C       -11.2177629224       -0.2725938069        3.4105087446
 O       -11.5401522436        0.8742347764        2.9305614960
 C       -11.6040065908       -1.5656190894        2.6298694420
 C       -12.8313594327       -1.4265810845        1.7897650488
 C       -14.1788742816       -1.3913732720        2.5452543348
 O       -14.4598388875       -1.6679303394        3.6557237223
 C       -15.4105797478       -0.7489164359        1.6538435373
 C       -15.0269500462        0.6780325260        2.0069874873
 O       -14.2224196817        1.2653679718        1.2459326433
 C       -15.6677576095        1.2611622478        3.3166274388
 C       -15.5105788504        2.8161200800        3.3168936321
 C       -16.3377123239        3.4158994338        2.1441962617
 O       -17.2156418260        2.8593767389        1.5617306832
 C       -15.9875627682        4.8638465395        1.7311907224
 C       -14.4264162933        4.6051790013        1.0655128127
 O       -13.4915589111        4.4944145251        1.8440798990
 C       -14.3372667423        4.2752512092       -0.4229063077
 C       -13.1208025913        4.6815788666       -1.2297249343
 C       -11.8903486299        3.7223092846       -0.9355678144
 O       -12.1299638200        2.6380590681       -0.4690323734
 C       -10.5316821587        4.2054204481       -1.3914588890
 C        -9.6643351143        4.3395527648        0.0419642973
 O        -9.8473652050        3.7453655930        1.1079611738
 C        -8.6417213138        5.4706954497        0.0218993421
 C        -7.3185842429        5.2583711155       -0.7188575451
 C        -6.6055328103        6.5046947160       -1.1441185782
 O        -7.0446114298        7.5790717676       -0.9498763609
 C        -5.2270831742        6.5212001151       -1.9837968729
 C        -5.3901455958        5.7189649760       -3.3171548720
 O        -6.4789677384        5.1859455107       -3.5374685277
 C        -4.1934576716        5.4115216344       -4.3145303584
 C        -3.7589108275        6.6835525864       -5.2018766774
 C        -2.5000992873        6.1434714325       -6.0411519290
 O        -2.2559914749        4.9448932882       -6.1687803784
 C        -1.5904127237        7.2674680485       -6.7029531160
 C        -1.1941460755        6.6630197702       -8.1054339601
 O        -1.9068210729        6.9974463283       -9.0700095190
 C        -0.2501898104        5.5869802733       -8.4086356172
 C        -2.2955255983        8.6461337339       -6.9330066641
 C        -0.4860991223        7.6208567366       -5.6882565633
 C        -4.6836879703        7.9390933739       -2.0968679618
 C        -4.2182476430        5.7444196323       -1.0605131275
 C        -9.9939263525        3.0131922308       -2.1997184122
 C       -10.5506792838        5.6481253609       -2.2129570407
 C       -17.0078157073        5.5302867518        0.7208714568
 C       -15.8463178246        5.7577082181        2.9974385798
 C       -15.4482806895       -1.0214300250        0.1498508971
 C       -16.6307342173       -1.4260163749        2.3167076904
 C        -9.5223505933        1.0859938949        4.7947723002
 C        -9.2671479802       -1.5080242447        4.4936388436
 H        -9.5949297777       -0.2270465243        7.6630937653
 H       -11.0889181766       -0.6953634532        7.9947452267
 H       -11.0894765474        0.8826386264        7.4341617671
 H       -11.8523030629       -2.2387908455        3.4513502541
 H       -10.7698177308       -1.8945035662        2.2329891178
 H       -12.9473431756       -2.3983862150        1.2793187572
 H       -12.8732424331       -0.6326804190        1.1219711124
 H       -14.9371474790        0.7285854909        4.0723530830
 H       -16.6134340632        0.8749495314        3.6623472518
 H       -14.3989172163        3.0975646801        3.2734007654
 H       -16.1216308170        3.2032951831        4.1924891415
 H       -15.1853011580        4.6933410119       -0.9756160251
 H       -14.3611620854        3.2703904166       -0.3913140537
 H       -12.8127151288        5.6642252386       -1.1635311091
 H       -13.4891079325        4.5968356985       -2.3470950064
 H        -8.5120416160        5.8891555081        1.0105547014
 H        -9.2632845045        6.2976975281       -0.4125586471
 H        -7.5120315901        4.4421568945       -1.4157536325
 H        -6.6151186239        4.7473775147        0.1069044368
 H        -4.3903609245        4.5931781764       -5.0327844097
 H        -3.3191770457        4.9693501014       -3.7318908489
 H        -3.4998015276        7.5800668734       -4.5667360413
 H        -4.5809656794        6.8469349810       -5.9290179241
 H         0.0755574020        5.8019582611       -9.4045753808
 H        -0.6948991267        4.5979739087       -8.4835166620
 H         0.6832097366        5.6435259882       -7.7357583243
 H        -3.2908911864        8.5329666076       -7.3066630459
 H        -1.6869864979        9.4135726748       -7.4115018944
 H        -2.5260430668        9.0432121190       -5.9073895264
 H        -0.6083086392        8.7145763957       -5.5544874955
 H         0.4725375779        7.3590118572       -6.0157694073
 H        -0.5612034868        7.0978892699       -4.7051341932
 H        -3.7072727705        8.0815239318       -2.4089247262
 H        -4.6840962104        8.3042417695       -1.1601777047
 H        -5.3874614753        8.5181745169       -2.6573356096
 H        -3.6527423366        6.5399607865       -0.6025653977
 H        -3.3977985620        5.2977611641       -1.5881448032
 H        -4.7386658738        5.1945528673       -0.3075327423
 H        -9.3622952416        3.3908443465       -2.9341666485
 H       -10.8390311575        2.4889672038       -2.6375678204
 H        -9.3461237073        2.1927083648       -1.7770093961
 H       -11.5266255804        5.9407680535       -2.4480201330
 H       -10.0326250899        5.4094769564       -3.1038828929
 H        -9.9886263757        6.5218960638       -1.7496406150
 H       -17.8147607882        6.0423530692        1.2456706861
 H       -17.4839755348        4.6070213914        0.2777920254
 H       -16.4524911512        6.2583273877        0.0402537921
 H       -15.7995032463        5.1449865580        3.9110246812
 H       -16.7070335931        6.4240872037        3.0764692568
 H       -14.8283664703        6.1744549531        2.8374920254
 H       -16.4282927941       -1.5233757620       -0.0298663108
 H       -14.6665733016       -1.6670922879       -0.1888167909
 H       -15.4548679957       -0.1870948957       -0.4548808492
 H       -16.2390965618       -2.4526699913        2.4988421093
 H       -17.5509184930       -1.5351289244        1.7549732140
 H       -16.9814984798       -1.2310081741        3.3868475589
 H        -8.8734540818        1.2808017195        3.8900017163
 H        -8.9136030964        1.1694735680        5.6744727112
 H       -10.1918924921        2.0162933037        4.7339552862
 H        -8.7383915777       -1.1863921794        3.6123568117
 H        -9.7402732329       -2.4861874836        4.2515468382
 H        -8.5550255142       -1.6426071012        5.3629972109
 Na      -12.0196375375        2.5555884850        1.6587268206
