117

 C       -10.7118520932        0.1441370252        7.2027539672
 C       -11.0500507281       -0.7512699751        5.9472466828
 O       -11.9094682247       -1.5540491605        5.8676924704
 C       -10.1331871919       -0.3038581728        4.6173181644
 C       -11.1539410519       -0.1300461376        3.4633225360
 O       -11.4192793910        0.9348877722        2.9457769855
 C       -11.6104619485       -1.4854043678        2.7064265674
 C       -12.8082321639       -1.3597187299        1.7302367086
 C       -14.1280149012       -1.4406133348        2.4927258960
 O       -14.0470414367       -1.8053500326        3.6516386814
 C       -15.4209080904       -0.8629023310        1.7640784219
 C       -15.0982561158        0.7096287009        2.0644864800
 O       -14.3480389544        1.3178069785        1.2971262248
 C       -15.6517012015        1.3753917231        3.2649926903
 C       -15.6674860993        2.8662281971        3.3821689474
 C       -16.4041800550        3.3608383245        2.1256195677
 O       -17.1371746992        2.7847111678        1.3703884105
 C       -15.8895237613        4.9323327158        1.6246446251
 C       -14.5514182514        4.7564107180        1.0620180121
 O       -13.6367225313        4.6675147729        1.8699781020
 C       -14.4601114540        4.4938951021       -0.4753515656
 C       -13.1539972027        4.8732690065       -1.1710162344
 C       -11.9387572166        3.8976777789       -0.8453771416
 O       -12.1170425405        2.7058495795       -0.5193512970
 C       -10.5153513290        4.3090586770       -1.4152613777
 C        -9.7342328101        4.6078386377       -0.0355784067
 O        -9.9607611330        3.8534215041        0.8912687079
 C        -8.5741212331        5.5568924010        0.0915900228
 C        -7.2675330275        5.1752991246       -0.6543777983
 C        -6.5970064962        6.5859857854       -1.1951124664
 O        -7.1926872558        7.6013643915       -0.9465349076
 C        -5.1534230876        6.4239863368       -1.8540959551
 C        -5.4312240498        5.6978221249       -3.3036938686
 O        -6.5355380955        5.3320483074       -3.5930443056
 C        -4.3151006359        5.3743456710       -4.2976135793
 C        -3.7334818994        6.4438236660       -5.3193168439
 C        -2.4687818256        5.9314953970       -5.9956869481
 O        -2.1589683774        4.7665369011       -5.9998689321
 C        -1.5659027460        7.1498183302       -6.5698304636
 C        -1.2381684351        6.5480006461       -8.1276858764
 O        -2.0752043445        6.9222709490       -8.8763666018
 C        -0.0770451443        5.4898601056       -8.4461037448
 C        -2.2639915800        8.3867823923       -6.9520149082
 C        -0.4425490776        7.5198748627       -5.5574042018
 C        -4.6273752123        7.7737075614       -2.4305763155
 C        -4.1312874006        5.6761342418       -0.9883575306
 C       -10.0773507761        3.1943234034       -2.2221464237
 C       -10.4706592110        5.4976990269       -2.2261992594
 C       -16.9497385097        5.3460121650        0.5770380244
 C       -15.9539268635        5.7433107402        2.9865646884
 C       -15.4259738721       -0.9515294704        0.2498122767
 C       -16.6070149616       -1.4098838546        2.5644014778
 C        -9.4765317929        1.0630340677        4.7287204752
 C        -9.2105479210       -1.5217509452        4.5377599388
 H        -9.9121521294       -0.2303635122        7.7579830960
 H       -11.5063603657       -0.2915098697        7.8820854214
 H       -10.8721457851        1.1890156396        7.0612291386
 H       -11.7349735025       -2.2702672864        3.3792582937
 H       -10.6591784981       -1.6640887099        2.2313702535
 H       -12.8942408531       -2.2773340061        1.0640525265
 H       -12.7904768321       -0.4285220347        1.2000065875
 H       -14.9630821103        1.0146479829        4.0549119092
 H       -16.5721549895        0.9125259436        3.6279338159
 H       -14.6299496677        3.2980226852        3.4146322507
 H       -16.4116863588        3.0696978576        4.2749559852
 H       -15.2269747542        5.1458438126       -0.9564319132
 H       -14.6252919051        3.4329303619       -0.6530124284
 H       -12.7643869267        5.8706510682       -0.8515336238
 H       -13.3172143482        4.9650888977       -2.1557172648
 H        -8.5329623063        5.9459548083        1.1394251599
 H        -8.8862321632        6.4687144320       -0.3888889929
 H        -7.6825184460        4.4041232285       -1.3312896395
 H        -6.4513209986        4.6733190067       -0.0176878048
 H        -4.6149255373        4.4668091278       -4.9136024146
 H        -3.4861333444        4.8609731748       -3.6892563172
 H        -3.3982869241        7.3588233303       -4.7071533400
 H        -4.4304890999        6.6514588652       -6.0479844695
 H         0.0600241072        5.4600020253       -9.5236655088
 H        -0.4186756381        4.4311934286       -8.2135489061
 H         0.8583587486        5.7139456949       -7.9456126412
 H        -3.1406172017        8.2569915151       -7.6505814667
 H        -1.5589739533        9.1556173773       -7.2536400192
 H        -2.7570424916        8.8392379978       -6.0341703606
 H         0.1303283505        8.1816632839       -6.1528438899
 H         0.1258180410        6.6520718769       -5.2396215773
 H        -0.7898375473        8.0736094088       -4.6343335350
 H        -3.6069917962        7.6620394672       -2.7536837356
 H        -4.5739919821        8.5971208102       -1.7269852357
 H        -5.1558033863        8.0652213336       -3.3247409449
 H        -3.6901804062        6.3809149051       -0.2255487027
 H        -3.2493699294        5.3965786324       -1.5381271952
 H        -4.7362568996        4.8776675078       -0.5116725001
 H        -9.2685980527        3.4950275034       -2.9434430011
 H       -10.8753857653        2.6118088127       -2.6234750762
 H        -9.5279756419        2.4196902170       -1.5945811150
 H       -10.9439068951        5.3316479337       -3.1595119182
 H        -9.4851744825        5.7362275441       -2.2835671224
 H       -10.9454729485        6.2863462041       -1.6830084818
 H       -17.7564373173        5.7897934772        1.1571628713
 H       -17.4362623780        4.3523958461        0.2159896580
 H       -16.5718865743        6.0787321817       -0.1622150335
 H       -16.0744191692        5.1403630587        3.9290849503
 H       -16.8679016686        6.2282782831        2.8652570500
 H       -15.0350372856        6.3312061652        3.0955377142
 H       -16.3483177132       -1.4396172314       -0.0477014446
 H       -14.5245654158       -1.4507801557       -0.2360441348
 H       -15.5178814448        0.0456458138       -0.1523337968
 H       -16.4638021639       -2.5266477329        2.4568546020
 H       -17.6032627860       -1.1554283269        2.1555897104
 H       -16.6979909753       -1.3678167558        3.5952149289
 H        -8.8765015366        1.2541415944        3.9414542950
 H        -8.8573859310        1.2322590333        5.6335096178
 H       -10.2529371267        1.9281615290        4.6623257519
 H        -8.6383287428       -1.4595229407        3.6418705390
 H        -9.9111281462       -2.2817465961        4.4095495733
 H        -8.6209984382       -1.7868904608        5.3910540552
 Na      -12.1671011118        2.4725008414        1.5901491363
