117

 C       -11.0231657758        0.3936929227        7.0733703981
 C       -10.9781734892       -0.5942439038        5.8725469123
 O       -11.7443237382       -1.5431250711        5.9351183866
 C       -10.0176480862       -0.2726263631        4.6323650116
 C       -10.9284381174       -0.1184876621        3.4026028601
 O       -11.3935399020        0.9658804461        2.9950913820
 C       -11.3620522768       -1.3947795900        2.6133148165
 C       -12.5739016251       -1.1907535168        1.7384001806
 C       -13.8553717164       -1.4386612879        2.4821371696
 O       -13.8671279412       -2.0460919970        3.4852380285
 C       -15.2895864147       -0.7647471206        1.9362951885
 C       -15.1450064082        0.7340228577        2.2600602346
 O       -14.5145451248        1.4759249795        1.5489485869
 C       -15.7856778638        1.3652522665        3.5402739102
 C       -15.8943072910        2.9334104866        3.4686032262
 C       -16.4832983797        3.3711585422        2.0079766839
 O       -16.9453491868        2.6148237581        1.1989407314
 C       -16.1193328151        4.9517430719        1.5504197833
 C       -14.6724292459        4.7824414901        0.9592409234
 O       -13.7358353063        4.7276815386        1.7733479543
 C       -14.4361003047        4.7117000617       -0.6242951072
 C       -13.0454075448        5.3441355041       -0.9079918237
 C       -12.0331038254        4.1671179056       -1.1811347632
 O       -12.2852929521        3.0499902223       -0.8244101312
 C       -10.6090815666        4.5175569831       -1.4601228638
 C        -9.7656942985        4.6062313367       -0.0449851235
 O       -10.1937662020        3.9420686961        0.8852602978
 C        -8.5681035054        5.4795518525        0.1574577608
 C        -7.3548967072        5.2189826195       -0.7027548078
 C        -6.6203235754        6.6043889395       -1.3334516098
 O        -6.8750797681        7.7656020317       -1.2171322021
 C        -5.1840742254        6.2844174401       -2.0431566895
 C        -5.5241654374        5.5732557249       -3.3685229448
 O        -6.7081848185        5.4375832806       -3.7325468807
 C        -4.3175271511        4.9582496987       -4.1159310278
 C        -3.9122843510        5.9770366650       -5.1784685010
 C        -2.5016894879        5.7190097216       -5.8394890294
 O        -1.9038925285        4.6676914137       -5.6819354745
 C        -1.6401733375        6.8754856128       -6.5660075294
 C        -1.2741458897        6.2894527266       -8.0285114556
 O        -2.0879995481        6.4529413970       -8.9509875670
 C         0.1021586582        5.5364765107       -8.1444277165
 C        -2.4541432860        8.2316104223       -6.5205431913
 C        -0.3584735468        6.8619440800       -5.7888765183
 C        -4.6807320689        7.7833852569       -2.3607506761
 C        -4.1440696813        5.6341912700       -1.1517077306
 C        -9.8124946494        3.2802895362       -2.0838839547
 C       -10.4299114676        5.7130760875       -2.4417137605
 C       -17.2285744470        5.3546332974        0.6079353535
 C       -16.1705913086        5.9941072061        2.6721518241
 C       -15.4179138925       -1.1432904642        0.4642461220
 C       -16.4665614927       -1.3737242727        2.7521973691
 C        -9.0564873726        1.0631265752        4.8654505390
 C        -9.0553979542       -1.5675178191        4.4721343998
 H       -10.3612543474       -0.0735447394        7.9138807031
 H       -11.8944438405        0.4286692700        7.6451439313
 H       -10.8440066944        1.3789084617        6.6017908769
 H       -11.4355604007       -2.2428581339        3.4468330441
 H       -10.4899467625       -1.6695127232        1.9679014104
 H       -12.5778855048       -2.0108253168        1.0284399864
 H       -12.6128527724       -0.1579299180        1.2752610008
 H       -15.2931005888        1.0817228275        4.4826639157
 H       -16.7222797382        0.8648585826        3.7534100953
 H       -14.8864297783        3.2418289291        3.3581240192
 H       -16.4004036098        3.2920943070        4.2672935707
 H       -15.2677282930        5.2360911229       -1.1487922129
 H       -14.3063643594        3.6137596218       -0.8754756322
 H       -12.6374936248        6.0140566348       -0.1570591841
 H       -13.1096839788        5.9794649523       -1.9642860123
 H        -8.3917301752        5.3203121415        1.2049449191
 H        -8.8756641816        6.5726806075        0.1262801847
 H        -7.6014183424        4.5927257311       -1.5425973074
 H        -6.5952282057        4.7161849235       -0.1424244519
 H        -4.6570762955        4.0408150299       -4.5139549339
 H        -3.5475442655        4.5828956215       -3.5186661864
 H        -3.8624255933        6.8940342112       -4.6751071375
 H        -4.6936285294        5.9554061035       -6.0048517460
 H         0.2106706920        4.9208160005       -9.0142376142
 H         0.1543343691        4.8899512789       -7.3137055278
 H         0.8982182562        6.2972102226       -7.9728827317
 H        -3.3949346121        8.1437907964       -7.0034684093
 H        -1.8257117699        8.8490700446       -7.1840733729
 H        -2.5753560173        8.8252765208       -5.6364468910
 H         0.1265615483        5.8389854061       -5.6592694926
 H        -0.4890386858        7.3736171629       -4.8415225958
 H         0.2709817799        7.4508153825       -6.4673169068
 H        -3.5742179168        7.8581039768       -2.6596604645
 H        -4.7766685808        8.4245526302       -1.4473754741
 H        -5.2008035267        8.2316679292       -3.3061139069
 H        -4.2366104714        5.9163031977       -0.1047765461
 H        -3.1207571208        5.9574054105       -1.5083641070
 H        -4.2668720432        4.5641483864       -1.3045649777
 H        -8.8022677345        3.4942269461       -1.9417072807
 H       -10.0554240270        3.0729841827       -3.1507740340
 H       -10.0541537891        2.3115137014       -1.6590617816
 H        -9.4601659945        5.6961514628       -2.9802015665
 H       -10.5027108322        6.5610922463       -1.7032388324
 H       -11.2243337764        5.7866582843       -3.2893967467
 H       -18.1377721054        5.0703367073        1.0949806985
 H       -17.1554583886        5.0127566911       -0.3768075649
 H       -17.1619725453        6.4200038505        0.6684920718
 H       -15.9529197735        5.6274518421        3.6366000942
 H       -17.2189907830        6.3059507788        2.6160067195
 H       -15.4074634073        6.7353278129        2.5239952063
 H       -16.2180753303       -1.9887707294        0.4495037938
 H       -14.4572450665       -1.5379074429        0.1187344934
 H       -15.7533001195       -0.3586751755       -0.2362989831
 H       -16.9232226236       -2.2025197952        2.3212674667
 H       -17.1743115680       -0.6174786041        2.8838764484
 H       -16.2512916530       -1.7712147765        3.7883512602
 H        -8.4027592568        1.4052689919        3.9886210169
 H        -8.3582754948        0.9568053806        5.6385714557
 H        -9.7057876039        1.9188856460        5.0961253189
 H        -8.4229766809       -1.6136547913        3.5579544188
 H        -9.6626344572       -2.4529034745        4.7895356550
 H        -8.4580518103       -1.4259055968        5.3972567057
 Na      -12.4870310729        2.5850093182        1.5358090927
