117

 C       -11.2178535381        0.6239953664        6.8128424658
 C       -11.0046950098       -0.4068273177        5.7385202567
 O       -11.4536436044       -1.4931076992        5.8433928919
 C        -9.9022089302       -0.1487446255        4.5376020982
 C       -10.7857401403        0.0629437467        3.3532756554
 O       -11.1748050822        1.1944917862        3.2578497077
 C       -11.2241356120       -1.1841749236        2.5866587485
 C       -12.5215947155       -1.0492871693        1.7896150674
 C       -13.7874730475       -1.4532815743        2.5932753263
 O       -13.8101213797       -2.2807080151        3.4903152594
 C       -15.1271958958       -0.7395044390        2.2745313694
 C       -15.0599471078        0.7793445860        2.4546461371
 O       -14.2879787600        1.2912259550        1.6116038956
 C       -15.9708849251        1.5063009820        3.4987967779
 C       -15.9242596348        3.0441243262        3.3027763948
 C       -16.5529372824        3.4865692037        1.9636571887
 O       -16.9435685736        2.6324716939        1.2143397638
 C       -16.2725857983        4.9424156919        1.4508013522
 C       -14.7868504092        4.8915529861        0.8156056620
 O       -13.9610915089        4.5898784327        1.6251821910
 C       -14.4706854906        5.1939977908       -0.5975078829
 C       -13.0553537334        5.5385010233       -0.8941477390
 C       -12.0969817334        4.3592752689       -1.1745179539
 O       -12.4631143509        3.1972689793       -1.2267277876
 C       -10.4890193263        4.5711453483       -1.5302505032
 C        -9.7835288554        4.6317309478       -0.1119059810
 O       -10.2860881569        4.2809038231        0.9365759390
 C        -8.5349685802        5.5603386132        0.1653079517
 C        -7.5276475171        5.2167445978       -0.8224888984
 C        -6.7313651620        6.5500429178       -1.2238830750
 O        -7.2230000364        7.6711076556       -1.1113115832
 C        -5.3031451867        6.4436392828       -2.1420791441
 C        -5.5004573319        5.5501201177       -3.4901475208
 O        -6.6176792826        5.3896032939       -3.8827360992
 C        -4.3604143079        4.7982788297       -4.2059163600
 C        -3.8681229376        5.6030156903       -5.4207778730
 C        -2.3850091947        5.3356962159       -5.6050611540
 O        -1.9216734997        4.2745649135       -5.2613891362
 C        -1.5782254940        6.4773499758       -6.2970619915
 C        -1.3410360730        5.9728555562       -7.9689408563
 O        -2.2420288233        6.2091188142       -8.6807956250
 C         0.0294104145        5.2867571378       -8.3179413020
 C        -2.4540295362        7.7787629514       -6.5078251368
 C        -0.2493341879        6.9160024801       -5.4396538006
 C        -4.5363209979        7.7599601066       -2.3986220988
 C        -4.3173973284        5.4379319753       -1.1624780803
 C        -9.9099769824        3.2107688953       -2.1733184578
 C       -10.1460588853        5.9545604336       -2.3396802024
 C       -17.3686883014        5.1953328289        0.3986786927
 C       -16.2269367249        5.9126544788        2.6880406645
 C       -15.3953472040       -0.9326468014        0.6822355236
 C       -16.2459449932       -1.5190552346        2.8944756435
 C        -8.9460460644        1.0053117237        4.7895286384
 C        -8.9980242671       -1.5125892774        4.4821678014
 H       -10.4924989583        0.5469696873        7.4753209813
 H       -12.0469262709        0.3654421143        7.4947612227
 H       -11.3519975698        1.5503105487        6.3092826771
 H       -11.1903817636       -1.9104127210        3.2288743436
 H       -10.4824432000       -1.3139232274        1.8139281928
 H       -12.4129773598       -1.6774995403        0.9224478717
 H       -12.6795618373       -0.0322351183        1.5724441177
 H       -15.9690433631        1.1350242583        4.5463024588
 H       -17.0017825849        1.1153627395        3.2829546682
 H       -14.8849260829        3.4935502557        3.2191357764
 H       -16.6431058973        3.4249339308        4.1384237574
 H       -15.1131749632        5.9943787778       -0.8281215688
 H       -14.8194916383        4.2818220457       -1.0614140282
 H       -12.6879861641        5.9829555653        0.0714271394
 H       -12.9460196590        6.1836199239       -1.6185704636
 H        -8.2296547603        5.5671980218        1.2439192369
 H        -8.9609701827        6.5176841086       -0.0342309222
 H        -7.8200670903        4.8355198658       -1.8607773686
 H        -6.8342139471        4.4484380335       -0.3766902310
 H        -4.6754083526        3.7341430187       -4.4131652381
 H        -3.5788320374        4.5343182240       -3.4557129473
 H        -4.1774448770        6.6845559060       -5.2210045687
 H        -4.3499297157        5.2124638364       -6.3042219647
 H        -0.2745131263        4.5382072057       -9.0958360406
 H         0.4283976689        4.7715042747       -7.4105499703
 H         0.7496205768        5.9855650110       -8.6095202801
 H        -3.4299344055        7.6119115276       -7.0435573454
 H        -1.9875065938        8.5686046868       -7.0642985240
 H        -2.7104869719        8.1501997938       -5.5350721121
 H        -0.6601481039        7.3857505803       -4.5675527012
 H         0.2507729808        7.7808264188       -5.9535191500
 H         0.3533691524        6.0969108469       -5.1608294496
 H        -4.0732686839        7.7070406815       -3.3206925855
 H        -3.8621023338        7.9957498932       -1.6190413618
 H        -5.1190453556        8.5519442541       -2.5461658410
 H        -4.3365947006        5.9637395695       -0.2105103849
 H        -3.3250279184        5.4341115514       -1.6110120613
 H        -4.5566116537        4.3786959926       -1.0753424049
 H        -9.0327462372        2.7748277695       -1.6273260419
 H        -9.6202296899        3.1740152261       -3.2094165419
 H       -10.7496402442        2.5816637450       -2.1781344850
 H        -9.6706965843        6.8059317190       -1.7901730460
 H       -11.0026614905        6.3412696322       -2.8927715200
 H        -9.4289713154        5.5998289798       -2.9586437651
 H       -18.2931059977        5.0672378110        1.0354103342
 H       -17.2111990966        4.3618908468       -0.3366600642
 H       -17.3576947583        6.1499036834       -0.1895602200
 H       -15.1707635743        6.1302983853        2.9618753288
 H       -16.8117598046        5.4603524151        3.4826387943
 H       -16.5646050404        6.9422033196        2.4420026518
 H       -15.4068990242       -1.8855256044        0.3409109216
 H       -14.6464868619       -0.2928248868        0.2408210946
 H       -16.3736235689       -0.4201896827        0.6212023713
 H       -15.9754499333       -2.5946275241        3.0724533116
 H       -17.3342981409       -1.3427806658        2.6148502080
 H       -16.3073994240       -1.1156763321        3.8848797253
 H        -7.9825984591        0.9665876187        4.3306144987
 H        -8.5939561307        0.8560681767        5.8959507411
 H        -9.3287303352        1.9527691631        4.6678300822
 H        -8.4539857845       -1.4136565898        3.5008691850
 H        -9.6455143461       -2.3996603713        4.5485434480
 H        -8.2586196228       -1.5994597036        5.2709208604
 Na      -12.4211887483        2.8624345398        1.4138542277
