117

 C       -12.4341329359       -1.5748095882       -8.7034951833
 C       -11.6612617738       -1.5315212775       -7.4145736781
 O       -11.6692569029       -2.4236140138       -6.5648433479
 C       -10.6830323784       -0.2139748276       -7.1541986514
 C       -10.7573758299        0.2488665462       -5.6906381217
 O       -11.4278413347        1.2334353322       -5.4002306348
 C       -10.3428804989       -0.6783995825       -4.5577830800
 C       -10.8831206984       -0.3468642418       -3.1808341493
 C       -10.5458702631       -1.3428054470       -2.1424089179
 O       -10.5736449976       -2.5664080520       -2.2370697143
 C        -9.9937667409       -0.7277409244       -0.8541754581
 C       -11.0584128482        0.2646251595       -0.3067716058
 O       -11.4035277916        1.2930040482       -0.8703082856
 C       -11.8333948289       -0.1042664166        1.0293963029
 C       -12.9379272157        0.8535765269        1.4544823145
 C       -12.3486664604        2.3510365580        1.7367219125
 O       -11.2778667265        2.5528155416        2.2886134010
 C       -13.4229948670        3.5678163111        1.2855398148
 C       -13.2541404069        4.9063381610        2.0062588411
 O       -12.4547024261        5.1687083302        2.8781677701
 C       -14.2475523402        5.9732299205        1.4891030351
 C       -13.7665284644        7.3325452070        1.9534220354
 C       -12.3833305571        7.7735518295        1.1817790249
 O       -12.0974473766        7.4536021993        0.0819470208
 C       -11.1613363964        8.3061534780        2.0574483371
 C        -9.7490663341        7.6727511302        1.6187655667
 O        -9.3570749016        6.7737334718        2.3053731057
 C        -8.9983491961        8.1371519547        0.3524021965
 C        -7.5325050105        7.6624132783        0.4015958486
 C        -6.8163384190        8.4310970699        1.5359204915
 O        -7.4521455266        9.2352523650        2.2197597061
 C        -5.3281492832        8.0035555814        1.7447954711
 C        -5.3195490800        6.5289889076        2.3459739352
 O        -5.2200199181        5.5819845934        1.5888367675
 C        -5.4615086000        6.2684509745        3.7979817359
 C        -5.7822480968        4.7642733091        4.0550408114
 C        -6.9392475251        4.0261007098        3.3443138223
 O        -8.0597275768        4.2164443092        3.8037731941
 C        -6.7714425686        3.0510024632        2.1033099907
 C        -7.3646982910        3.7269265769        0.8712092975
 O        -8.4955060108        4.1547099388        0.8276653283
 C        -6.4799381504        3.7405268833       -0.3229080254
 C        -5.3612315770        2.5698818689        1.9003866251
 C        -7.6780252317        1.7953845792        2.4593583083
 C        -4.5801532103        8.0189671453        0.4226763278
 C        -4.5887246255        9.0266186170        2.6379155070
 C       -11.0742478934        9.9132109800        1.9001424799
 C       -11.2899968203        8.1305261287        3.6408848500
 C       -13.0726583814        3.8008441980       -0.2408084569
 C       -14.8759213037        3.0903582029        1.4371695590
 C        -9.6552200128       -1.8840471245        0.1624086509
 C        -8.6597926175       -0.0741876520       -1.1038299734
 C        -9.2396847300       -0.7723978910       -7.3674289631
 C       -11.0666391290        0.9819694107       -8.0933354217
 H       -13.1116227696       -2.4364778406       -8.5437933000
 H       -11.7104667113       -1.5743313518       -9.4341122638
 H       -13.0402990139       -0.6789119165       -8.7708759062
 H        -9.2556869377       -0.8051213231       -4.5946949511
 H       -10.8360227771       -1.5651349095       -4.8087846236
 H       -11.9828054500       -0.1854351142       -3.2904892352
 H       -10.3732825692        0.5902345147       -2.9553302274
 H       -11.2213952029       -0.4849280356        1.8515519213
 H       -12.2890773441       -0.9920125228        0.6419441940
 H       -13.5283110277        0.5489381771        2.3452271023
 H       -13.5825894149        0.9833239719        0.6306501744
 H       -15.1838596141        5.6247245931        1.8512262809
 H       -14.3606930061        5.8001344610        0.3469171663
 H       -13.4697641915        7.3160997564        3.0160304473
 H       -14.4581023455        8.1755633889        1.9150311592
 H        -9.1038501912        9.1970077905        0.3821242229
 H        -9.5587327939        7.8927954943       -0.4989169158
 H        -7.0214666573        7.7935301897       -0.5205465445
 H        -7.4948270207        6.6362351973        0.7652942178
 H        -6.2334114359        6.9085892632        4.2883610849
 H        -4.5252601608        6.4795422455        4.4605980664
 H        -5.9977930606        4.8177389952        5.1502015063
 H        -4.8190029554        4.2094152857        3.9843569097
 H        -6.6537619447        2.9563384957       -1.0167415054
 H        -5.4227662836        3.5383461994       -0.1517794949
 H        -6.4567353980        4.6352768796       -0.9549096249
 H        -4.8832888599        2.3757272261        2.8903978850
 H        -4.7109381574        3.3008587081        1.5145158399
 H        -5.3538747165        1.6401055563        1.2982855831
 H        -8.7793987747        1.9762879081        2.4345937258
 H        -7.4080889613        1.4196836186        3.5334740530
 H        -7.4860485097        1.0026356237        1.8021073013
 H        -4.8783384545        8.9108489966       -0.0961874461
 H        -4.8113340182        7.2337448825       -0.2721422723
 H        -3.4531892430        8.0167655246        0.6494717389
 H        -3.6083245165        8.5714004175        2.9489898484
 H        -5.2212824363        9.1007623875        3.5994998429
 H        -4.3320937796       10.0650579364        2.2751928016
 H       -11.8550687590       10.4432118176        2.4756336085
 H       -11.2062274253       10.1557802772        0.8701119991
 H       -10.0825874778       10.3541665996        2.2122744757
 H       -11.2431462651        7.1278010458        3.8892210536
 H       -12.1679568492        8.5237861056        4.1456740595
 H       -10.4526949221        8.6170935671        4.1041798088
 H       -12.5139839560        4.7176289790       -0.3063965012
 H       -14.0340086818        3.8957624595       -0.7215476149
 H       -12.6036989469        2.9412436873       -0.6981731860
 H       -15.1319907773        2.5761699296        0.5199874464
 H       -15.4849654918        3.9764361650        1.3454355744
 H       -14.9728352026        2.5210836414        2.3191579329
 H        -8.9831248692       -2.6441530339       -0.2620237396
 H       -10.5861448112       -2.4106398656        0.4785377082
 H        -9.2337883177       -1.5156448159        1.1211671211
 H        -8.1148343104       -0.6191039175       -1.8698114420
 H        -7.9887203791       -0.0551356611       -0.2374720358
 H        -8.8142883701        0.9842286009       -1.2793248519
 H        -9.0804724020       -1.7263922098       -6.7922930400
 H        -8.4449232942       -0.1109594772       -7.2766680447
 H        -9.1217861760       -1.0008184864       -8.4057617884
 H       -12.1832643922        1.1482076239       -7.9996028871
 H       -10.7539521470        0.6616670062       -9.0952369660
 H       -10.5705952900        1.8679208312       -7.7483044942
 Na      -10.0616025001        4.6819634748        2.6975179709
