117

 C       -11.8770658012        1.1573119188        5.2153000736
 C       -10.5925269563        0.3468718053        5.2608349935
 O       -10.4960371051       -0.5808857281        5.9491292086
 C        -9.5622182557        0.6908706574        3.9960947852
 C       -10.3816481712        0.7402465096        2.7652677824
 O       -10.7916352388        1.7791085448        2.3254978501
 C       -10.7549207380       -0.5998584383        2.0203117298
 C       -12.1918795978       -0.7063392421        1.4740892946
 C       -13.1437509253       -1.0464657621        2.5727060991
 O       -12.8316602816       -1.5263974289        3.6427597176
 C       -14.5770327446       -0.4448828344        2.4045466762
 C       -14.6654383600        1.1080437835        2.7742551744
 O       -13.6713490270        1.8396391899        2.9606291477
 C       -16.0624564510        1.6198023154        3.3059796034
 C       -16.1619986914        3.1042253383        2.9743644057
 C       -16.7427389690        3.4724144551        1.5207988353
 O       -17.1245751887        2.6569058277        0.7453333882
 C       -16.6472049273        5.0677541907        1.0504894405
 C       -15.1225407725        5.2492064176        0.7955394388
 O       -14.2652992284        4.9570019879        1.6515642503
 C       -14.5967821869        6.0802219422       -0.4486951921
 C       -13.0594969026        6.0980459815       -0.4770286498
 C       -12.4229828563        4.6879165360       -1.1046964971
 O       -13.2110298813        3.7499187924       -1.1579347025
 C       -10.8090239809        4.6600991712       -1.4790293178
 C        -9.9839790703        4.6948547730       -0.1228504141
 O       -10.0196737705        3.8358097751        0.7394201816
 C        -8.7398109047        5.7013968663        0.0312140028
 C        -7.6904472317        5.1398971849       -0.8144769607
 C        -6.6386761352        6.3048561655       -1.3785931363
 O        -6.9680280990        7.4601284621       -1.4967518201
 C        -5.3214854795        5.7759130878       -2.0345777410
 C        -5.6655068617        4.8821832784       -3.3578986614
 O        -6.8471169480        4.7981124954       -3.6160133314
 C        -4.5342237265        3.8886183306       -3.8656872845
 C        -3.9065514607        4.4209634409       -5.1636250531
 C        -2.2846827597        4.7381058613       -4.8210705153
 O        -1.8083765515        4.3169197743       -3.8245705349
 C        -1.5516667510        5.5491522375       -6.0670685118
 C        -1.8164351452        4.5251449021       -7.2865076165
 O        -2.9236673473        4.3921178734       -7.7202294454
 C        -0.5960404104        3.6624771751       -7.6250556419
 C        -2.1546925487        6.9585345774       -5.9740675095
 C        -0.0135071202        5.5650430206       -5.6123307800
 C        -4.5898036690        7.0750702448       -2.6083755116
 C        -4.3550403713        5.1996699777       -1.0802333518
 C       -10.5320863906        3.1439399362       -2.0594126600
 C       -10.5290640591        5.8419786498       -2.5298665874
 C       -17.4340767128        5.2217301114       -0.2091292293
 C       -17.3306874602        5.9460697837        2.1530032213
 C       -15.1717027247       -0.6141813442        0.9428621838
 C       -15.6036318341       -1.1644273458        3.4668138112
 C        -9.0418268416        2.1326138271        4.4169275531
 C        -8.4281204298       -0.4560340878        4.0167152647
 H       -11.8533324899        1.7483204938        6.0845530875
 H       -12.6716502145        0.3709500121        5.2895269061
 H       -12.0002699446        1.8040849055        4.4228562648
 H       -10.6547852220       -1.4995166738        2.6684615239
 H       -10.1540823056       -0.6707292936        1.2215365911
 H       -12.2558033438       -1.5841153838        0.9330293940
 H       -12.5803745963        0.0256501855        0.7675426845
 H       -15.9794627518        1.5291220971        4.3920658986
 H       -16.9970870452        0.9965247216        3.1177212173
 H       -15.1833696342        3.7096719941        2.9868986202
 H       -16.7790110564        3.5099292683        3.7593222919
 H       -14.8280216372        7.0783032141       -0.1263570428
 H       -15.1884455427        5.8096723199       -1.2575855602
 H       -12.7301331010        6.2946969372        0.4743527970
 H       -12.8244492445        6.9752609613       -1.0943288353
 H        -8.4735647159        5.8183923552        1.0949109225
 H        -9.0397298711        6.6632872416       -0.4125795527
 H        -8.0636930541        4.5243526815       -1.7006394330
 H        -6.9842051584        4.5056464864       -0.2283858276
 H        -4.9848055111        2.8902558234       -4.0477343441
 H        -3.8612884241        3.8821049965       -2.9899591326
 H        -4.3997715079        5.3072447004       -5.5144450514
 H        -3.9376007286        3.7792300335       -6.0864082954
 H         0.2847033938        4.2105761856       -7.8345238396
 H        -0.9549567250        3.0660667101       -8.4177494685
 H        -0.2745859821        3.0270592446       -6.7357046189
 H        -3.1909993673        6.9164795177       -6.1532756913
 H        -1.7196529736        7.5869069744       -6.7732562211
 H        -1.9312080621        7.4662217006       -5.0360211260
 H         0.3861098538        6.5260255093       -5.9112157474
 H         0.6324130036        4.9059219097       -6.1755529034
 H         0.1965784783        5.4725856494       -4.4629657209
 H        -3.5401175873        7.0285823631       -2.6624827660
 H        -4.7723635219        7.8763118988       -1.9376512890
 H        -5.0147654418        7.5611584742       -3.4741475096
 H        -4.4164389501        5.7798441988       -0.1962173737
 H        -3.3370532428        5.3848698048       -1.3941271153
 H        -4.6649811697        4.2313446620       -0.8133642330
 H       -10.6380002446        2.3505932586       -1.4222150125
 H        -9.5764929774        3.1651984212       -2.5054766866
 H       -11.3149129783        2.8318335121       -2.7740479630
 H       -10.5089452486        6.8063387941       -1.9908978243
 H       -11.3279662179        5.9278051544       -3.2939137475
 H        -9.5169486767        5.7283762664       -3.0353032115
 H       -18.4755097870        5.1631437389       -0.1002263569
 H       -17.3148791718        4.3403152485       -0.9154175353
 H       -17.3467456190        6.1938017189       -0.6668572315
 H       -16.8107730366        6.0805319454        3.0998757445
 H       -18.2605213562        5.5312405379        2.4655634041
 H       -17.3544574206        6.9831359381        1.8487852659
 H       -15.7884189130       -1.4727249099        0.9301259236
 H       -14.2836878349       -0.7444806587        0.3828965897
 H       -15.5954838153        0.2720465316        0.7336876345
 H       -16.5275338314       -0.5882369951        3.4411968534
 H       -15.3814916071       -1.1245248325        4.5078746960
 H       -15.9286527486       -2.1252537500        2.9770246566
 H        -8.1174634709        2.3120739368        4.0748179979
 H        -9.1765735027        2.2297824253        5.5034995995
 H        -9.6942406568        2.9293682344        3.9369176449
 H        -7.7777981392        0.0793440417        3.3336834268
 H        -8.6655517420       -1.4816199926        3.5799490597
 H        -8.0111631357       -0.3475796129        5.0977192155
 Na      -12.3983948132        3.0981291828        1.3678231925
