117

 C       -11.9162995473        1.2024578915        5.2106957022
 C       -10.5386006261        0.4994066351        5.1069807887
 O       -10.1416226813       -0.4186442014        5.8417901770
 C        -9.5586446119        0.9449715801        3.9222754011
 C       -10.3888303333        0.8297959984        2.6229816849
 O       -10.9379128589        1.8754508398        2.2819758860
 C       -10.6095487714       -0.4498078475        1.9107360296
 C       -12.0438920394       -0.6817601656        1.4848479709
 C       -13.1691135521       -0.7552351075        2.6602718864
 O       -12.7590569876       -1.1055964565        3.7436170238
 C       -14.6964324716       -0.4292235009        2.4658357759
 C       -14.7062342733        1.1397619835        2.6743557992
 O       -13.7257268925        1.8205553983        2.5780589909
 C       -16.0758009409        1.7787210800        3.0534722454
 C       -16.3364468174        3.2748843569        2.9805429939
 C       -16.6116613109        3.5641994367        1.5069669709
 O       -16.8461309168        2.6403117073        0.7555849937
 C       -16.5768567622        5.1379321604        1.0508290078
 C       -15.0519101147        5.2000410217        0.8825744768
 O       -14.3314384441        4.9644981801        1.8209730655
 C       -14.5079066722        5.7922540902       -0.4613678634
 C       -13.0029621838        5.9799325531       -0.4615780095
 C       -12.4354321141        4.6927103343       -0.9275924362
 O       -13.0136653458        3.6114121283       -1.0244921718
 C       -10.9358063696        4.7460546226       -1.4860700285
 C       -10.0071262195        4.7803953739       -0.1792663797
 O       -10.2423498565        3.9975675354        0.7373339439
 C        -8.8325731801        5.7309963357       -0.2345412414
 C        -7.5149677761        5.0976619802       -0.8174743900
 C        -6.6678338806        6.3270596416       -1.4231053090
 O        -6.9901307587        7.4739918699       -1.3516383339
 C        -5.3327666299        5.8211765002       -2.0652588354
 C        -5.6444216523        4.6474050257       -3.2112727552
 O        -6.7836205501        4.3834727666       -3.4957854291
 C        -4.5403301672        3.6052185655       -3.6944005804
 C        -3.9729548214        4.2500768037       -4.9203652225
 C        -2.5136236944        4.7576741463       -4.6250867961
 O        -1.9672978806        4.5110671467       -3.5671825489
 C        -1.5328673682        5.2025937944       -5.8560363874
 C        -1.7850100294        4.2304326684       -6.9988316764
 O        -2.8605497826        4.3633967058       -7.6239099179
 C        -0.8584918062        3.1932275335       -7.6713795297
 C        -2.0659038012        6.5748506172       -6.4534625188
 C        -0.0739686085        5.3062620933       -5.2958380422
 C        -4.5189412332        6.9958770199       -2.7745131948
 C        -4.5390480665        5.0290210253       -0.9283099044
 C       -10.6413882603        3.3037058082       -2.1380420501
 C       -10.6405054441        5.8097834398       -2.5896137620
 C       -17.3528983349        5.1384255336       -0.2516101309
 C       -17.2042871582        5.9380206773        2.1452340900
 C       -15.1936619537       -0.4747884385        0.9786485031
 C       -15.4805408727       -1.2988316612        3.4532958590
 C        -8.9768018112        2.2569079885        4.1892841731
 C        -8.3527364061       -0.0013493560        3.9431103061
 H       -12.2750330913        1.6652601617        6.2703648814
 H       -12.5904048485        0.4587570868        4.8116176900
 H       -11.9027104280        2.0156620980        4.4717359949
 H       -10.2604666635       -1.2760132634        2.5724761247
 H        -9.9946341175       -0.4658058715        0.8993600478
 H       -12.1361605849       -1.5538425000        0.7417979893
 H       -12.3514839874        0.1632381674        0.8726019332
 H       -16.1029494940        1.5360028286        4.1601482925
 H       -16.8831953697        1.1761465489        2.6800284475
 H       -15.4367092066        3.7935479525        3.3075319689
 H       -17.1773594961        3.5893668642        3.6816305094
 H       -15.1178019500        6.7301922847       -0.4799858330
 H       -14.8989183337        5.1342954900       -1.3308515826
 H       -12.4463228655        6.2252546476        0.5377250559
 H       -12.6733326254        6.7600579233       -1.1971792840
 H        -8.6035551361        5.8825353325        0.8139867840
 H        -9.0899388451        6.6660917924       -0.7307793071
 H        -7.6145071641        4.5592094913       -1.7201231323
 H        -7.0229655910        4.4961594691       -0.0823256797
 H        -5.0166529639        2.6412083932       -3.9740631300
 H        -3.7408082153        3.4724181177       -2.9099770507
 H        -4.4263902191        5.2060009785       -5.2895343646
 H        -3.8172139609        3.6512536380       -5.8541118454
 H         0.1900666553        3.2221696067       -7.2883402261
 H        -1.0180981354        3.3174058675       -8.7600455998
 H        -1.1489560296        2.2293581264       -7.3873879823
 H        -3.1183128632        6.4895489281       -6.7917087423
 H        -1.4099554942        6.9297576261       -7.2324321175
 H        -2.0919082696        7.2769834307       -5.6587336382
 H         0.7507432679        5.1771144987       -6.0429151799
 H         0.1339143951        4.5696272774       -4.5457002605
 H        -0.0324833452        6.2335580942       -4.8721626517
 H        -3.4757945677        6.7701889785       -2.7033769370
 H        -4.5826940845        7.9602072004       -2.3352565688
 H        -4.7425957419        7.1828905664       -3.8587907163
 H        -4.2673981950        5.6659592220       -0.0846895087
 H        -3.5505045111        4.7282260940       -1.1994814666
 H        -5.2776412338        4.3224821195       -0.6311963096
 H       -10.9495925304        2.4422106888       -1.4950653514
 H        -9.6399456204        3.2076592273       -2.6339073621
 H       -11.3751121073        3.1596305633       -2.8862741438
 H       -11.5455076100        6.2161833173       -2.8548034140
 H       -10.3086968454        5.3654641396       -3.4912576364
 H        -9.9522054066        6.6328913189       -2.4011832053
 H       -18.3117038664        4.5135647976       -0.2808572049
 H       -16.8776037396        4.7103599268       -1.0600638719
 H       -17.8448005921        6.1074659231       -0.4606948207
 H       -16.9430011556        6.9803129565        2.2214956412
 H       -17.1225422026        5.5840581613        3.1998111410
 H       -18.2712967964        6.0696750334        1.8837912398
 H       -15.1371572135       -1.5801521204        0.7416902759
 H       -14.5838086375        0.1943774821        0.4149231888
 H       -16.2326774933       -0.1219986093        1.1545569353
 H       -16.5216021736       -0.9987057399        3.6197873167
 H       -14.9882202443       -1.1910083216        4.4454454459
 H       -15.6274353735       -2.2600741754        2.9841761417
 H        -8.2739925910        2.4808320101        3.2622651138
 H        -8.4350227401        2.1873180704        5.0987510245
 H        -9.6832295865        3.0632005315        4.2197232001
 H        -7.7495254482        0.1879928117        3.0796741741
 H        -8.8217333451       -0.9287024774        3.9799214562
 H        -7.8612298397        0.1298933960        4.8155490188
 Na      -12.5791327019        3.3839638177        1.3574417298
