117

 C       -11.3215435406        1.7289043035        5.7769809171
 C       -10.2472607932        0.7941242377        5.1661586446
 O        -9.7779834318       -0.1442460150        5.8376769805
 C        -9.6016063757        1.1230724519        3.8445413359
 C       -10.5629557245        1.0435389715        2.6931400384
 O       -11.0744267467        2.0586309744        2.2123556269
 C       -10.6222592078       -0.3053214182        1.8720132081
 C       -12.0776597379       -0.3564461164        1.2850616070
 C       -13.0552849060       -0.5082891291        2.5559500328
 O       -12.7276434365       -0.8755611163        3.6548104009
 C       -14.6362417439       -0.4001931176        2.3071397484
 C       -15.0797893977        1.1373386676        2.4704898895
 O       -14.3373728742        1.9955267108        2.0780873811
 C       -16.3570836209        1.6478631604        3.3624905708
 C       -16.7078211264        3.1225347356        3.1174104115
 C       -16.5261810717        3.4349460253        1.5896368680
 O       -16.5965026618        2.5514945425        0.7756460047
 C       -16.5443769022        4.9097473611        1.1130601384
 C       -14.9749105321        5.2551403833        0.8247681299
 O       -14.1507514793        5.3273844729        1.7398318705
 C       -14.5342616691        5.8772007380       -0.5574696476
 C       -13.1131023838        5.9098809927       -0.8325611616
 C       -12.4118627069        4.5802791255       -1.1264380740
 O       -12.8972470770        3.5464438530       -0.7919428167
 C       -10.9392978435        4.7743244698       -1.6388910377
 C       -10.2196070122        5.1272991151       -0.2522065279
 O       -10.7691123387        4.9480680124        0.8309785065
 C        -8.8794138278        5.9760882887       -0.2977453328
 C        -7.7664338318        5.2161115996       -0.7797256206
 C        -6.5560544644        6.0478687390       -1.2354877087
 O        -6.8398487406        7.2029717224       -1.3906128826
 C        -5.4080647445        5.4187361279       -2.0087055449
 C        -5.7113697926        4.2130800571       -2.8604077444
 O        -6.8453435032        4.1535281711       -3.2940628213
 C        -4.6010835453        3.3757165950       -3.5334091120
 C        -3.9421292929        3.9500370300       -4.8086076177
 C        -2.4840758739        4.4737398022       -4.6471458891
 O        -2.1061017846        4.9393416639       -3.5721246611
 C        -1.5252937958        4.7967135237       -5.8569163893
 C        -1.7980902178        3.7452314130       -7.0503246498
 O        -2.8688000213        3.8605487975       -7.6232291644
 C        -0.8195474558        2.5147863203       -7.1865532853
 C        -1.9504641966        6.3379923473       -6.0622391333
 C         0.0179273322        4.7429473913       -5.4723657635
 C        -4.8485319976        6.5975871978       -2.8260451842
 C        -4.3860829084        5.1263292103       -0.8350524400
 C       -10.3863946986        3.4725718308       -2.2661251573
 C       -10.6867449076        5.8066087400       -2.8896772698
 C       -17.4081738118        5.1729361000       -0.1924973206
 C       -16.9280313321        6.0045164395        2.1813199978
 C       -14.9723221287       -0.7967847596        0.8336340437
 C       -15.3196163632       -1.3851158947        3.3277436005
 C        -9.1149101012        2.6432562926        3.8088213087
 C        -8.2811187343        0.3091780445        3.5473347461
 H       -10.7142619709        2.0754775303        6.7667307063
 H       -12.1194256089        1.1421193573        6.0864949272
 H       -11.6719910623        2.5870884305        5.2092935650
 H       -10.3150196309       -1.2258473595        2.3405031894
 H        -9.8602689592       -0.0609844201        0.9535994922
 H       -12.2873559475       -1.1645931897        0.5845001405
 H       -12.3574256157        0.5035860519        0.7760506873
 H       -15.8067065100        1.5299939431        4.3512429735
 H       -17.2016083335        0.9662822958        3.4259862899
 H       -16.1218285291        3.6762682165        3.8373474476
 H       -17.8241788504        3.4319970471        3.2698959048
 H       -14.9978547957        6.8672040273       -0.5277089169
 H       -15.0907162801        5.3920740887       -1.3053774870
 H       -12.4704644327        6.3332377917        0.0369184927
 H       -12.9148488918        6.5696087322       -1.6007809248
 H        -8.7386247171        6.3755993207        0.6884567553
 H        -8.9551973499        6.7400574566       -1.1134305893
 H        -8.0439771144        4.6457605960       -1.6820534028
 H        -7.3405449137        4.4389091432        0.0022761478
 H        -5.0417598033        2.4445539369       -3.8975749841
 H        -3.8583269044        3.0828944384       -2.7517869226
 H        -4.3937690339        4.9453676915       -5.1335400501
 H        -3.7513222636        3.3149128211       -5.5822544937
 H        -0.9870812451        1.7232537746       -6.4299291865
 H         0.2241338442        2.9395968258       -7.2011257227
 H        -1.0171495989        2.0739754545       -8.1192214346
 H        -3.0411370796        6.5847810110       -6.0702719605
 H        -1.4994999571        6.7188748323       -6.9427038381
 H        -1.5347393469        6.8300222913       -5.1556335606
 H         0.3242501280        3.6697976337       -5.2462413955
 H         0.1926919368        5.2396423322       -4.4581657627
 H         0.5971436855        5.2695759209       -6.1875958218
 H        -3.9630246984        6.3730826400       -3.3187960803
 H        -4.5185625498        7.3537834898       -2.1968668751
 H        -5.5556454723        6.9675030340       -3.5540698898
 H        -4.2480749539        6.0005740276       -0.2083984906
 H        -3.4138858485        5.0949865268       -1.3493588391
 H        -4.5821598218        4.1858807597       -0.2594216462
 H       -10.3883261024        2.7058745357       -1.4405360952
 H        -9.3942683192        3.5928957139       -2.6709833652
 H       -10.9205875159        3.0964597698       -3.0899265158
 H       -10.3190155057        5.1518917736       -3.6676059663
 H        -9.8130403539        6.4353463508       -2.6443016650
 H       -11.4052672723        6.5223170824       -3.3154132667
 H       -18.4990947011        5.5481373502       -0.0852925651
 H       -17.4844670291        4.2514766663       -0.7335885930
 H       -17.0267013424        5.9206562714       -0.8895012304
 H       -17.9701593070        6.3033248011        2.3654115815
 H       -16.4738712900        6.9337217368        1.8444031868
 H       -16.4183397952        5.8727056970        3.1246564685
 H       -14.4117041527       -1.6573312537        0.6372020912
 H       -14.8260892260        0.0415575416        0.2698111973
 H       -15.9785974136       -1.1314151618        0.9275100369
 H       -16.2925752332       -1.7926847908        3.0805034624
 H       -15.1604215959       -0.8940768513        4.3380307981
 H       -14.7587973508       -2.2846785823        3.3952709585
 H        -8.6993814959        2.9632339506        2.7735976829
 H        -8.2293070431        2.5998651179        4.4275640463
 H        -9.8191653029        3.3254979590        4.1020569363
 H        -7.9556358786        0.8052952268        2.5439844197
 H        -8.5856481778       -0.7333557682        3.6487922167
 H        -7.5583535001        0.5580693692        4.3041239898
 Na      -12.5862504007        3.4815920164        1.6513811142
