117

 C       -12.3711274681       -1.6100470061       -8.6111122749
 C       -11.6109820376       -1.5003012882       -7.3091301101
 O       -11.6648423031       -2.4106540256       -6.5091037760
 C       -10.6449719645       -0.2726755217       -7.1181869422
 C       -10.8639169627        0.2810661922       -5.6659315048
 O       -11.4482280784        1.3444801727       -5.4176821858
 C       -10.3480259212       -0.7229196600       -4.5621724094
 C       -10.9039140347       -0.2997909815       -3.1909980427
 C       -10.5580478219       -1.2995795831       -2.0547831095
 O       -10.8202027870       -2.4476317045       -2.2269789812
 C        -9.9544458865       -0.7042343990       -0.6196988610
 C       -11.0253951276        0.2883168719       -0.0861667376
 O       -11.2824407591        1.2073598944       -0.8138977349
 C       -11.8222357476       -0.0808259509        1.1576434633
 C       -12.8430453642        0.8744316861        1.5867272249
 C       -12.4417685440        2.3085209901        1.8090399505
 O       -11.2926822212        2.5022199649        2.1801774444
 C       -13.4810671325        3.4083226640        1.3969309554
 C       -13.3193309978        4.7939745826        2.0777312348
 O       -12.4640730487        5.0538372795        2.9353769867
 C       -14.1633834232        6.0262915934        1.5906185083
 C       -13.5890201506        7.3039891954        1.9740936794
 C       -12.2770891709        7.5690729749        1.2775378366
 O       -12.2474495209        7.2277787441        0.1034887665
 C       -11.1578585434        8.3817378136        2.0062155162
 C        -9.8498987430        7.7765799812        1.5351367605
 O        -9.3230522953        6.9273459081        2.2279137193
 C        -9.1159325025        8.0743262527        0.1781362598
 C        -7.6118695180        7.7833906890        0.2363592571
 C        -6.8428639211        8.4557756611        1.4475540364
 O        -7.3761706156        9.2973788808        2.1030223410
 C        -5.2540884182        8.0878758797        1.7072833247
 C        -5.2156650898        6.6031182981        2.2708419970
 O        -5.0777028699        5.7130078415        1.4675974830
 C        -5.3664923808        6.3596479408        3.7524081703
 C        -5.8018663656        4.8816738859        4.0914238875
 C        -7.0276341521        4.2188160979        3.3487402705
 O        -8.1034299955        4.2885493420        3.8795645745
 C        -6.8149353339        3.0965487196        2.1184558291
 C        -7.4117886332        3.7191656097        0.7268463839
 O        -8.4833707252        4.2783840418        0.7247339222
 C        -6.5558116916        3.6310631863       -0.5487668808
 C        -5.3321444918        2.5653653497        2.0216508239
 C        -7.6354089596        1.7501620971        2.4254742377
 C        -4.5537758139        8.0303911008        0.3192036346
 C        -4.6922113236        9.0995425252        2.7119484189
 C       -11.1238765370        9.9368852904        1.7333794466
 C       -11.2716538766        8.2228002591        3.5120163840
 C       -13.0984001670        3.7203660959       -0.1863945831
 C       -14.9107765407        2.8894227591        1.5475721654
 C        -9.7054451137       -2.0190789606        0.2347422381
 C        -8.5771342167       -0.0472307946       -1.0304966867
 C        -9.1948366271       -0.8765596026       -7.4680054998
 C       -11.0944815380        0.8442366678       -8.0298858886
 H       -12.7505758913       -2.6853026993       -8.5867673004
 H       -11.6253013294       -1.2794163579       -9.3444878700
 H       -13.2169539973       -0.9086026846       -8.5928885108
 H        -9.2841324231       -0.5989555424       -4.6144484053
 H       -10.7024005206       -1.7724530018       -4.7489196748
 H       -11.9812318959       -0.3229122325       -3.3241200993
 H       -10.6094169871        0.8031915644       -3.1263414587
 H       -11.0893620339       -0.1541127430        1.9550597027
 H       -12.1613229765       -1.0856702013        1.0505197290
 H       -13.2118662713        0.6044244336        2.5900863434
 H       -13.7664377207        0.9058592304        0.9233944761
 H       -15.2098766104        5.9002558679        1.9846217045
 H       -14.2614853023        5.8400185781        0.5457692507
 H       -13.5826196130        7.4976571219        3.0497822539
 H       -14.1926807193        8.1509287519        1.5660879599
 H        -9.4189555459        9.1161678112       -0.1098431604
 H        -9.5706974078        7.4912196057       -0.6422884419
 H        -7.1760849636        8.2421059239       -0.6560303420
 H        -7.4734777096        6.6936370634        0.2741665188
 H        -6.1832331852        7.0333742926        4.1820165665
 H        -4.5085480775        6.5599877398        4.4665393224
 H        -5.8589614468        4.8951673366        5.2030640473
 H        -4.9186136526        4.2596065076        3.8074506744
 H        -6.7139552712        2.9315788457       -1.3633461108
 H        -5.5367845029        3.4029081556       -0.3574330317
 H        -6.4673526130        4.5867852002       -1.0090638269
 H        -5.0579672852        1.9034495357        2.7372417665
 H        -4.6180046569        3.4370697346        2.1346497028
 H        -5.1644423779        2.0481709642        1.0368463602
 H        -8.7080564195        1.7447165799        2.3939054744
 H        -7.3164452647        1.3429692799        3.4204921574
 H        -7.3109812981        1.0207355568        1.6221927083
 H        -4.8362582959        8.8362002891       -0.3346221712
 H        -5.0498691001        7.1595239261       -0.1545943602
 H        -3.4929831755        7.8011752225        0.3606996262
 H        -3.7363184074        8.6883361501        3.0674675317
 H        -5.3196632967        9.3548131576        3.5515595561
 H        -4.3911911423       10.0375145101        2.2176570555
 H       -11.6445906015       10.5688826886        2.4967416232
 H       -11.5648732194       10.1681418318        0.7716193353
 H       -10.0736378158       10.2907230546        1.7056650065
 H       -11.5244130937        7.1190656223        3.6450045607
 H       -12.1435743518        8.7085005032        3.9308995464
 H       -10.3970158444        8.4409078254        4.1050768066
 H       -12.2238338621        4.3333658314       -0.1761703712
 H       -13.9528323258        4.1623788459       -0.6003231274
 H       -12.9480008341        2.7370393301       -0.7408866199
 H       -15.1062884989        2.1887207460        0.7691739197
 H       -15.4312393827        3.7672939508        1.1352581821
 H       -15.1703360253        2.5890527421        2.5956066009
 H        -9.0556458954       -2.6759019261       -0.3089289077
 H       -10.5675887980       -2.5564867988        0.4560028295
 H        -9.2547284015       -1.8248469612        1.2132020952
 H        -7.8830134602       -0.8366279368       -1.3570840142
 H        -8.0236674859        0.5694181848       -0.3452286653
 H        -8.8540771505        0.6180961431       -1.8120826772
 H        -9.1271324753       -1.8617176426       -7.0054634416
 H        -8.3702949609       -0.2314520089       -7.2053591236
 H        -8.9567946581       -0.9363390450       -8.5498335740
 H       -12.1218386917        1.0277616072       -7.7555410508
 H       -10.9990011554        0.4539657152       -9.0496031930
 H       -10.5256993230        1.7630225102       -7.8497182749
 Na       -9.9713415272        4.5885075870        2.7086914613
