117

 C       -10.5889088284        2.1139193325        5.8771093024
 C        -9.5416742783        1.1308644699        5.2226134713
 O        -9.4190076616        0.0301450542        5.6667530628
 C        -9.1772067422        1.6243136104        3.6943712193
 C       -10.5145261678        1.4124278095        2.7607993302
 O       -11.3366846715        2.3378129468        2.7370457304
 C       -10.7206613427        0.1114345012        2.0305549688
 C       -12.1148886616       -0.0897070824        1.4081023103
 C       -13.1449828366       -0.3756206704        2.5823588551
 O       -12.8944568914       -0.2250669744        3.7476682198
 C       -14.6844926525       -0.4755152900        2.1513737983
 C       -15.0684790501        1.0429216173        2.2946920495
 O       -14.2487951962        1.8103833862        1.8915839836
 C       -16.4107445913        1.5860725385        2.9475593099
 C       -16.4606641048        3.1735805281        2.9012935542
 C       -16.6718460300        3.4802746827        1.4361485720
 O       -16.8787045931        2.6803789491        0.5220017421
 C       -16.7947959902        5.0799724419        1.2477283487
 C       -15.2989139504        5.2624439715        0.6373413135
 O       -14.3359933632        5.5015350962        1.3977559121
 C       -15.0380408905        5.4557642719       -0.8983375916
 C       -13.6505944408        5.9482265733       -1.2638652497
 C       -12.6494905313        4.7348228298       -1.3036944705
 O       -13.0615356747        3.6193247217       -1.0802931712
 C       -11.0783486663        4.8722613014       -1.4381894028
 C       -10.3112938846        5.4489150352       -0.1280687521
 O       -10.8019678308        5.4312297336        0.9827092080
 C        -8.8622639762        6.0975053572       -0.1568090707
 C        -7.6747941753        5.3660893776       -0.7416970774
 C        -6.4827746380        6.1502159475       -1.4441592982
 O        -6.6211662157        7.3372756793       -1.3797624974
 C        -5.2917579558        5.4119260824       -2.0347677386
 C        -5.6934349992        4.0337741374       -2.6902956686
 O        -6.8557012848        3.7920313403       -2.9613272144
 C        -4.6094996219        3.0079520438       -3.1940567519
 C        -3.8331676423        3.3271248137       -4.5530016166
 C        -2.5194127721        4.2837760359       -4.4767981834
 O        -2.0231504389        4.5836614105       -3.4004420690
 C        -1.4864139800        4.4418814389       -5.8539263425
 C        -1.8750539276        3.2043512374       -6.7714421840
 O        -2.8505015710        3.3811866480       -7.5074732081
 C        -1.0864777865        1.8435001792       -6.7832105013
 C        -1.6389463178        5.7721699889       -6.5552371441
 C         0.0167430731        4.3672137533       -5.2616846192
 C        -4.6200660648        6.2715244550       -3.1096876292
 C        -4.3586754324        5.0730182379       -0.7952986689
 C       -10.4703703022        3.4523897596       -1.6314794193
 C       -10.6770146432        5.6443379958       -2.6877545755
 C       -17.9247941344        5.4594660055        0.1757621122
 C       -16.8038048244        5.8255419451        2.4745536672
 C       -15.0681127568       -0.9818399068        0.6525292010
 C       -15.3465920388       -1.4832231175        3.2193235596
 C        -8.7098483760        3.1427426937        3.6858861900
 C        -8.0178425670        0.5741188616        3.1501103491
 H       -10.3468734399        3.1994244336        5.6645072194
 H       -10.4508897823        1.8968953127        6.9573845488
 H       -11.5669405214        1.9647824240        5.6227417190
 H       -10.4136257368       -0.6733048651        2.8240285742
 H        -9.8676147820        0.1537990068        1.2966546623
 H       -12.1063562587       -0.9433710986        0.6729111724
 H       -12.4178366830        0.7531432274        0.8798809896
 H       -16.2082508804        1.3452988435        4.0406053624
 H       -17.2541206400        1.0409431938        2.5971958136
 H       -15.6190757095        3.5948533949        3.3481482060
 H       -17.2941769102        3.5836230202        3.5305899478
 H       -15.7956656811        6.0818557644       -1.2700726694
 H       -15.3072252888        4.5208369544       -1.3755836720
 H       -13.2335669873        6.5936205388       -0.5200049284
 H       -13.6943625594        6.5794687100       -2.1030739228
 H        -8.6010397480        6.2109229985        0.8878074414
 H        -9.1249001357        7.1427647953       -0.5101891899
 H        -8.1040801933        4.5555744076       -1.3618130737
 H        -7.3177869121        4.9438808615        0.2795723337
 H        -5.0311026083        2.0766216277       -3.3857557590
 H        -3.9134648776        2.8690543970       -2.4046849392
 H        -4.3332814380        3.9461245586       -5.3108981454
 H        -3.4205959360        2.4568072134       -4.9942706741
 H        -1.1129853860        1.2310322324       -7.7001966319
 H        -1.4428502146        1.1394633387       -5.9889529603
 H        -0.1173229377        2.1241356287       -6.5521050493
 H        -2.5376154606        5.5946362164       -7.2392620056
 H        -0.8058390424        5.9676725944       -7.2381408733
 H        -1.8088849061        6.5632162328       -5.8257507150
 H        -0.0617998370        4.1616057678       -4.1436107053
 H         0.6229824884        5.2651310865       -5.4344832596
 H         0.4935495216        3.5178798472       -5.6273063500
 H        -3.5433135677        6.0850281510       -3.3644850543
 H        -4.6098671017        7.3070846927       -2.7217638202
 H        -5.1678847001        6.2801151001       -4.1297083617
 H        -4.4690281608        5.8921274403       -0.0875799350
 H        -3.4098390445        4.6908453186       -1.1468288799
 H        -4.6933183937        4.1549815943       -0.2402191450
 H       -10.2865557719        3.0114822433       -0.6300756930
 H        -9.5064340334        3.3575986269       -2.1802241806
 H       -11.1079440403        3.0135349503       -2.3146154348
 H        -9.9523796490        6.3602581806       -2.4545956935
 H       -11.5481119088        6.2580729567       -3.1570342716
 H       -10.1693374312        5.0326401578       -3.5296188726
 H       -18.9055671514        5.2471820525        0.6507582502
 H       -17.7834022841        4.9415117035       -0.6904220371
 H       -17.9612397340        6.5089527138       -0.1708282530
 H       -16.0070255437        5.6409732060        3.2058271403
 H       -17.6725493712        5.6396048598        3.0928468723
 H       -16.8087955174        6.8537179140        2.0887346203
 H       -15.0351917052       -2.1068596134        0.7166924956
 H       -14.4639029026       -0.4812243202       -0.0334816389
 H       -16.1026088077       -0.6428294357        0.5580655545
 H       -16.3889190788       -1.6088498620        3.1174193130
 H       -15.0383751196       -1.3432007638        4.2355169290
 H       -14.7918622968       -2.3863127396        3.0684242128
 H        -8.2165891498        3.3510176278        2.6570845265
 H        -7.9393087384        3.2101098914        4.3396964920
 H        -9.4950048128        3.8709468013        3.8450992152
 H        -7.8662076799        0.9438231049        2.0977770135
 H        -8.4293159594       -0.5069589857        3.2827351990
 H        -7.1166408988        0.7095650982        3.7945479040
 Na      -12.5531764736        3.7265360900        1.2779938452
