117

 C       -10.4516250649        2.1695449274        5.9407649276
 C        -9.5959455423        1.2080487076        5.1391791880
 O        -9.2566147706        0.1355096074        5.5539899556
 C        -9.0936950197        1.7113793062        3.6375470784
 C       -10.4352221177        1.5028430478        2.8641080960
 O       -11.2284981867        2.4356487298        2.8690536638
 C       -10.6724522719        0.1862861441        2.0854021518
 C       -12.0730098518       -0.0387722307        1.5571389550
 C       -13.2407784933       -0.1918608420        2.5641816952
 O       -12.9483626861       -0.3294520661        3.7340111236
 C       -14.7123936825       -0.4860317645        2.1878271906
 C       -15.0822714396        1.1049266106        2.2298164754
 O       -14.2284091160        1.9113813314        1.8501349944
 C       -16.3020879923        1.5972903760        2.9776606087
 C       -16.4681902305        3.1611165766        2.7266764192
 C       -16.8904214322        3.5806206527        1.3713114445
 O       -16.9886797829        2.7203319434        0.5091834887
 C       -16.8143355518        5.2222947459        1.1454601994
 C       -15.4273485206        5.4779625280        0.5003316066
 O       -14.5430410361        5.5000535032        1.2973854431
 C       -15.1077460766        5.4189144043       -1.0434214488
 C       -13.6442189922        5.8046194739       -1.2940601800
 C       -12.5930123147        4.7461903299       -1.0953177572
 O       -13.0547602104        3.6124419250       -0.9956269862
 C       -10.9631969295        4.8648811558       -1.3444271421
 C       -10.3053829013        5.4872590033       -0.1173109154
 O       -10.8435362250        5.3009446442        1.0066304897
 C        -8.9242140263        6.2364759188       -0.2229067533
 C        -7.7772592563        5.2874306999       -0.8068570755
 C        -6.6539630943        6.1748855153       -1.3502739905
 O        -6.6301297225        7.3803870412       -1.4949147761
 C        -5.3315805163        5.3843630931       -1.9641439405
 C        -5.6390328724        4.0397687169       -2.6833116842
 O        -6.8194366204        3.8071914509       -2.9226818787
 C        -4.5254142845        3.0898915227       -3.1404926009
 C        -3.8941257355        3.3834287846       -4.5182332847
 C        -2.3897742269        4.0257231177       -4.4473417379
 O        -2.0485748735        4.4998619947       -3.4297454786
 C        -1.4859244240        4.1807627217       -5.7389783364
 C        -1.8263786967        3.0939180154       -6.7487291731
 O        -2.8218380795        3.1309216192       -7.4581676651
 C        -1.1494449097        1.7060181451       -6.6396828066
 C        -1.7797977827        5.6454716431       -6.3318602062
 C         0.0212766919        4.2012566446       -5.3771119098
 C        -4.7139057490        6.1509638494       -3.0984767470
 C        -4.3493524804        5.0816572209       -0.7415201261
 C       -10.5398329489        3.3801334534       -1.5021892298
 C       -10.6968536002        5.7883447590       -2.6674957828
 C       -17.9830194438        5.6584010641        0.2093427399
 C       -16.8203939502        5.9921328494        2.5796649411
 C       -14.7566893072       -1.0172663450        0.7912492335
 C       -15.2157086335       -1.5939351560        3.1141988236
 C        -8.6336283886        3.1013896865        3.4969331817
 C        -8.0223293943        0.7377306101        3.0378908384
 H       -10.4021043173        3.1580923130        5.6645769798
 H       -10.2842517972        1.9469187142        7.0999631074
 H       -11.5682039287        1.8939621862        5.7679607654
 H       -10.2953005224       -0.6366084652        2.8975280748
 H        -9.9084841881        0.2165235309        1.2610652957
 H       -12.0290082926       -0.9436412472        0.9735797240
 H       -12.2753864090        0.7723344610        0.9096843353
 H       -16.2941664058        1.4088606444        4.0895258575
 H       -17.0230100132        0.9898142049        2.4192051885
 H       -15.5025824593        3.6827878896        2.9822309831
 H       -17.1278344007        3.5590228615        3.5428638509
 H       -15.7835187585        5.9222756521       -1.6906232128
 H       -15.2798364779        4.2992277529       -1.3647986040
 H       -13.2624835629        6.7337313985       -0.8731181780
 H       -13.6610397395        6.1096697775       -2.4501370760
 H        -8.6933422240        6.8057302644        0.7012256036
 H        -8.9427747668        6.9994912515       -1.0769148277
 H        -8.3686067931        4.9876891016       -1.7462993963
 H        -7.4030933992        4.4464673814       -0.2193096825
 H        -4.8939132348        2.0664840258       -3.3382042613
 H        -3.7106388974        2.9639565788       -2.4012093768
 H        -4.3457834776        4.0249783104       -5.2062007117
 H        -3.6935874462        2.3180826775       -4.9437879432
 H        -0.7863103451        1.2459217496       -7.5572316594
 H        -1.8450278803        0.9774302010       -6.2975040339
 H        -0.3406979664        1.8420876493       -5.8927117574
 H        -2.5924079770        5.5316567997       -7.0706293381
 H        -0.8664683648        5.9905266151       -6.9120128455
 H        -2.0233489212        6.3215893346       -5.5368269079
 H         0.1340339476        4.1474675333       -4.2764241182
 H         0.4090698193        5.1632493847       -5.7102752257
 H         0.6057270913        3.3138549417       -5.8030276799
 H        -3.7691736157        5.8406901389       -3.4329306352
 H        -4.6646134028        7.2210613443       -2.9566569128
 H        -5.3137764599        6.0311695817       -3.9055335276
 H        -4.3095212138        6.0213740006       -0.2449976350
 H        -3.4823220005        4.5778739386       -1.1435991645
 H        -4.6277296294        4.3919404773       -0.0195653485
 H       -10.7942510796        3.0191465522       -0.5617661887
 H        -9.5068210958        3.0725155224       -1.6144920295
 H       -11.0898552043        3.0215608436       -2.3707260573
 H       -10.2571919614        6.8141504830       -2.5003239371
 H       -11.5781646375        5.9959122149       -3.2202994765
 H        -9.9773695107        5.2777490973       -3.3185244635
 H       -18.7216892523        5.9056817389        0.9263944629
 H       -18.3407580974        5.0258329892       -0.6465127251
 H       -17.7028629879        6.5841514186       -0.3554513430
 H       -15.9430239863        6.3786035874        3.0449593130
 H       -17.1934953318        5.2351539656        3.2536505903
 H       -17.5750930629        6.8019931809        2.5042656739
 H       -14.1760277552       -1.9135976157        0.8118021961
 H       -14.4003485138       -0.2256439589        0.1504937746
 H       -15.7278603105       -1.1968287468        0.6102293844
 H       -16.1990842531       -1.9450465002        2.8431187212
 H       -15.2031066332       -1.4417824621        4.1502801395
 H       -14.3735659049       -2.3401354899        3.0653225394
 H        -8.5226816135        3.4744225466        2.5290323478
 H        -7.6538092059        3.0622957390        3.9980998671
 H        -9.3490152623        3.7952902874        4.0756463129
 H        -8.0728146616        1.0320188653        2.0210440671
 H        -8.5232627061       -0.2478326275        3.2117678425
 H        -6.9851566739        0.7713337285        3.5555807369
 Na      -12.5174498284        3.6411100453        1.1300999042
