117

 C       -10.2956626238        2.2243528875        5.9778520278
 C        -9.5103963121        1.3138155700        5.0731112889
 O        -9.0312841801        0.2132861603        5.4015525369
 C        -9.1081716508        1.7089521894        3.5568037044
 C       -10.4498905829        1.6549443928        2.8880691292
 O       -11.2054453588        2.6018017135        2.8659235926
 C       -10.7114000743        0.2561633675        2.1593417398
 C       -12.0312479900       -0.0023712497        1.6031127220
 C       -12.9917696047       -0.3298952449        2.7442835824
 O       -12.7727196294       -0.3635963719        3.9375936446
 C       -14.4743304718       -0.4697336031        2.1516629902
 C       -15.0604439436        1.1031506444        2.1963435454
 O       -14.3208401127        1.9822096174        1.7084168782
 C       -16.3421343480        1.5744833728        2.9539191470
 C       -16.4549386328        3.0630488306        2.8003862624
 C       -16.9041266870        3.7118659643        1.3577470922
 O       -17.2251662780        3.0786389068        0.3923065412
 C       -16.9457559212        5.2862175190        1.1007678280
 C       -15.3615077425        5.4402996258        0.4451409394
 O       -14.4199011152        5.4536826679        1.1818877300
 C       -15.1255553495        5.3806602547       -1.0642326140
 C       -13.6621226876        5.8688051905       -1.4933006885
 C       -12.6236082828        4.7285763326       -1.2386913566
 O       -12.9703414544        3.6130494470       -0.8568041239
 C       -11.1277197835        4.8413042187       -1.3342300465
 C       -10.3258905433        5.4484197056       -0.0864692036
 O       -10.7691867312        5.1839712324        1.0111239174
 C        -9.0997538547        6.3422893751       -0.2771353032
 C        -7.9457141694        5.3597312261       -0.9771462516
 C        -6.7339802201        6.1182329906       -1.3726728412
 O        -6.6975454602        7.3301167575       -1.5397568743
 C        -5.3465050690        5.3614936137       -1.9267500392
 C        -5.6803704111        3.9746401950       -2.7132322508
 O        -6.8143307561        3.6291567472       -2.9928946639
 C        -4.4170054309        3.1828230150       -3.1031425626
 C        -3.8926464699        3.4091595756       -4.5522846174
 C        -2.2950259107        3.8385127250       -4.4017236261
 O        -2.0022109251        4.3574173017       -3.3384704787
 C        -1.4671679621        3.9515388741       -5.6761127331
 C        -1.9305248186        2.8806119182       -6.6379945481
 O        -2.7750249185        3.0008422902       -7.4685330008
 C        -1.2054598204        1.4483886405       -6.4664229078
 C        -2.1093378291        5.4010797495       -6.1611735970
 C         0.0482006396        4.0232067678       -5.3556491203
 C        -4.7396644102        6.2820026758       -2.9532456268
 C        -4.3031291170        5.2202735949       -0.7277703700
 C       -10.5077597578        3.4430078761       -1.4817092898
 C       -10.8008942418        5.7383995925       -2.5890453882
 C       -18.0811340609        5.8142703544        0.2115789388
 C       -17.0190590113        6.1425077184        2.4156543982
 C       -14.5193417212       -0.9664618623        0.5932317047
 C       -15.2232176852       -1.3892162727        3.0296852435
 C        -8.5525450708        3.1671265388        3.4182386507
 C        -7.9594112539        0.7959937834        3.0378277485
 H       -10.4269502377        3.2831170728        5.5985666097
 H       -10.1707864474        2.1575135580        7.0122846530
 H       -11.3820131647        1.8042520320        5.7702664854
 H       -10.6314451566       -0.3945940172        2.9464277612
 H        -9.8748268752        0.0383581976        1.4593082746
 H       -11.9052288632       -0.8100000544        0.9300705605
 H       -12.5408976385        0.9109813571        1.0859695776
 H       -16.3122244547        1.3709560498        4.0070603587
 H       -17.1605993621        1.0392231591        2.3495242443
 H       -15.5127048649        3.5477642970        3.2962317223
 H       -17.2040956948        3.3727697473        3.5280476571
 H       -15.9861177460        6.0394207794       -1.5319249916
 H       -15.3113799566        4.3821800847       -1.5341496228
 H       -13.1884787225        6.7750315160       -0.9246419917
 H       -13.8031185392        6.3278221008       -2.5455454561
 H        -8.7949283393        6.5362609936        0.7972275680
 H        -9.0429308507        7.3018467113       -0.7819023762
 H        -8.3765400463        4.7905770308       -1.7826491739
 H        -7.5324346473        4.7391623718       -0.2457366007
 H        -4.5161949788        2.0351451696       -3.0359957093
 H        -3.5286421770        3.4194727570       -2.4300759124
 H        -4.2249737365        4.3581744017       -5.0106641880
 H        -4.0522513432        2.5057614028       -5.2142560319
 H        -0.4156932135        1.4642912425       -7.2082925390
 H        -1.7878113967        0.6627668231       -6.9021842866
 H        -0.7110423649        1.1770209103       -5.4863143831
 H        -3.0701071716        5.2803689228       -6.5941967027
 H        -1.4139451217        5.8806782802       -6.8463067885
 H        -2.1201441199        6.0008256219       -5.2336198039
 H         0.2064872888        3.9578577279       -4.3063025942
 H         0.3545059382        5.0187450057       -5.7100910514
 H         0.6224707448        3.1549553911       -5.8196016197
 H        -3.8112639707        6.0075968267       -3.2754509787
 H        -4.7820212374        7.2810468731       -2.7222687668
 H        -5.3164298584        6.2399739658       -3.8285280046
 H        -4.1825138409        6.2216590661       -0.4652170435
 H        -3.5051479888        4.6184130329       -1.0287499638
 H        -4.5657462892        4.7397538376        0.1579156161
 H       -10.7057222016        2.9235126939       -0.5790573298
 H        -9.4848742168        3.5560000136       -1.3440806312
 H       -10.6797152203        2.9244153039       -2.4749930654
 H       -10.9956466449        6.8564636640       -2.5150592352
 H       -11.3696507134        5.4792673490       -3.4074206884
 H        -9.8143580820        5.5890759074       -2.7937884805
 H       -18.7393841843        6.2737915882        0.9615120408
 H       -18.6374674143        5.1773671701       -0.5743570956
 H       -17.6377908170        6.5597656995       -0.4803927893
 H       -16.1163440196        6.8544423051        2.4520593875
 H       -16.8220474701        5.4104006062        3.2354322928
 H       -17.9040503275        6.7462630008        2.5307255185
 H       -13.6624854536       -1.5424173895        0.5204312123
 H       -14.5587936780       -0.1890554971       -0.1627934165
 H       -15.4355537075       -1.5737216175        0.5597496282
 H       -16.2374087521       -1.5757833499        2.5930416896
 H       -15.5254895216       -0.9339713978        4.0116404028
 H       -14.6246219508       -2.2182454131        3.3822359018
 H        -8.6608087235        3.5662928881        2.4485801584
 H        -7.4272938522        3.2345550441        3.7780296356
 H        -9.1927873027        3.7505041071        4.0597032297
 H        -7.9290249883        0.9707159458        1.9856459582
 H        -8.0771837754       -0.1764794585        3.3359952589
 H        -7.1467244116        1.1813505258        3.5906845284
 Na      -12.5745581023        3.4474578315        1.3116795816
