117

 C        -9.5475604428        2.4548266188        6.0579596011
 C        -8.6182570026        1.6804682355        5.0718746346
 O        -8.0216040734        0.6808743663        5.3161180765
 C        -8.5900701625        2.2064470965        3.6121198094
 C        -9.9358693773        1.8473368143        2.9690156621
 O       -10.7013845218        2.8080138557        2.8400735696
 C       -10.4727612954        0.3934327299        2.5497304215
 C       -11.7341023079        0.4950220133        1.6477943425
 C       -13.0434469094        0.0154531823        2.5199919501
 O       -12.7540707401       -0.4405922610        3.6203840175
 C       -14.5313566069       -0.0675589380        2.0391395466
 C       -14.9918467661        1.2848038600        1.8495321550
 O       -14.3675891606        2.0962753329        1.2341562739
 C       -16.4156494286        1.6930320204        2.4527169036
 C       -16.5920060908        3.2651541637        2.3329318219
 C       -17.1625980093        3.9983439331        1.1339386546
 O       -18.0295562870        3.4053148238        0.5332173641
 C       -16.7693273277        5.5280932537        1.0324179591
 C       -15.3534531052        5.5840132410        0.3330291419
 O       -14.4083345582        5.2700761981        1.1046805658
 C       -15.1401061572        5.7029200241       -1.1064733692
 C       -13.6639081160        5.8459671278       -1.5324635080
 C       -12.7946387119        4.5539598835       -1.3840098055
 O       -13.1743434568        3.5975861577       -0.7492726762
 C       -11.2366256504        4.5223986167       -1.7482761333
 C       -10.6414777175        5.0280330257       -0.4463530221
 O       -10.9490761683        4.6315312901        0.6588500873
 C        -9.4877294004        6.0279722886       -0.4628049263
 C        -8.1905680643        5.3044062626       -1.1132656823
 C        -7.1260301649        6.2416539194       -1.4795891170
 O        -7.3289886920        7.4135376181       -1.6637286686
 C        -5.6589294156        5.6119323284       -1.7129503600
 C        -5.6240903347        4.0471741310       -2.3479077383
 O        -6.6581974773        3.6717561157       -2.8954469253
 C        -4.2208332856        3.4529460237       -2.7274390161
 C        -3.8316096979        3.2160836899       -4.1967376557
 C        -2.3245510762        3.1114897103       -4.1477173546
 O        -1.6816225842        2.8097490950       -3.1386477309
 C        -1.7071633087        3.4561889078       -5.5528778668
 C        -2.0122618266        2.0670235546       -6.2998625847
 O        -2.7484613449        2.0398971864       -7.2835765085
 C        -1.5768940391        0.7535253667       -5.5390126146
 C        -2.3060242773        4.7363580131       -6.2135557153
 C        -0.1611564206        3.5101692484       -5.4021197261
 C        -4.8532595921        6.5099664037       -2.6875206718
 C        -4.8733683987        5.6287568619       -0.2813688824
 C       -10.7326830646        3.0790698254       -2.2940518694
 C       -10.8208533850        5.4198628623       -2.9352013652
 C       -17.8757996049        6.1354763150       -0.0066793149
 C       -16.8976104522        6.2207707548        2.4020983338
 C       -14.7583898677       -0.8566284939        0.7506235357
 C       -15.3654006808       -0.7818713841        3.1087641241
 C        -8.4077630846        3.6928344584        3.5815135862
 C        -7.3874982539        1.4963313787        2.9685443657
 H        -9.8036571081        3.3714213467        5.8007992069
 H        -8.9348284178        2.6220458221        7.0477255382
 H       -10.4821547231        2.0171940202        6.3687977043
 H       -10.6502346754       -0.1278549012        3.4593996659
 H        -9.6812891351       -0.0043180473        2.0808449742
 H       -11.5534810478       -0.2272563863        0.7648779523
 H       -11.7614416466        1.5510858572        1.3667953803
 H       -16.2625922087        1.5766149088        3.5354954647
 H       -17.2207416384        1.1638262453        1.9038216010
 H       -15.5683611064        3.6365106061        2.5484475394
 H       -17.1101029269        3.6522161673        3.2705699492
 H       -15.8305011538        6.4817223240       -1.5580057389
 H       -15.3692095939        4.6494811935       -1.4876827152
 H       -13.1860422672        6.7643312430       -1.0203723819
 H       -13.6545262110        6.0496976345       -2.6366007743
 H        -9.1195023397        6.2686535505        0.5513663861
 H        -9.7171683712        7.0941198049       -0.7546586579
 H        -8.2417887662        4.6801199527       -1.9204366820
 H        -7.8959586578        4.6897802793       -0.2867804041
 H        -4.0763329635        2.4365684497       -2.2401029142
 H        -3.5200723784        4.1747634589       -2.1549763246
 H        -4.3296573155        4.0237479064       -4.8556774586
 H        -4.3421322231        2.3365178013       -4.4595262804
 H        -2.2089225188        0.7967594008       -4.6341714361
 H        -0.5941091363        1.0342238994       -5.0573480811
 H        -1.6424406525       -0.2277264497       -5.9180714443
 H        -3.3886059891        4.5830376609       -6.3661276789
 H        -1.7473829854        4.9678427284       -7.0673935761
 H        -2.0629851564        5.5634604840       -5.5677074836
 H         0.2411373753        3.7077841171       -4.3338889627
 H         0.2412957897        4.2471421382       -6.1227953437
 H         0.3159849987        2.6028515595       -5.7144194647
 H        -3.8450608457        6.2690607413       -2.6357024347
 H        -4.9539170408        7.5439955704       -2.4860952662
 H        -5.1872147930        6.3694560363       -3.6606138079
 H        -4.8642191594        6.5756754866        0.2064295151
 H        -3.8343453905        5.4736203883       -0.5299931714
 H        -5.1945248011        4.8049885456        0.3843091863
 H       -10.7098838954        2.3458854637       -1.4981645086
 H        -9.7256992211        3.3875863668       -2.5704641237
 H       -11.3553275187        2.7101399761       -2.9932572640
 H       -10.4736383083        4.8536349816       -3.7215414744
 H       -10.1368483721        6.2329179755       -2.7199296326
 H       -11.6936439695        5.9074830912       -3.2799176835
 H       -18.8504366637        6.1585520819        0.5545289221
 H       -18.1788179269        5.3788606501       -0.7204468118
 H       -17.5161503313        7.0654589765       -0.5529619611
 H       -17.3924306150        7.0302156906        1.9827155046
 H       -15.9490888293        6.4778683389        2.9184900648
 H       -17.4392298194        5.6713178935        3.1939806121
 H       -14.5519313748       -1.9259985141        1.0627699289
 H       -13.9997100807       -0.4826170094        0.0936833746
 H       -15.7383966008       -0.7127919738        0.3061979134
 H       -16.3725818424       -1.1494077496        2.7930088243
 H       -15.6190037079       -0.0466515572        3.9107401987
 H       -14.9542869888       -1.7231660947        3.5080819100
 H        -7.8468756138        3.8258825625        2.5818680154
 H        -7.9026785516        4.0724119521        4.3916735151
 H        -9.3861829426        4.2189029349        3.5395632095
 H        -7.1664151814        1.8153191344        2.0292061504
 H        -7.5342361200        0.4360343389        2.9907574004
 H        -6.5845810585        1.8087356994        3.6223051153
 Na      -12.5904754741        3.7864200405        1.8285894848
