117

 C        -9.3010287834        2.3683093042        6.0658633341
 C        -8.3375012643        1.9955097002        4.8756590747
 O        -7.4135306919        1.2648175019        5.0363643259
 C        -8.6539886344        2.5786089673        3.3893055583
 C       -10.1131830645        2.1636480108        3.1507277975
 O       -11.0045281901        2.9780846804        3.0762755743
 C       -10.4088493197        0.6781610845        2.6606111609
 C       -11.7714902384        0.7133712038        2.0034663364
 C       -12.9944051268        0.1827913243        2.8921120851
 O       -12.8978756514       -0.0511821614        4.0753938781
 C       -14.4619552707        0.0865062020        2.1275972890
 C       -14.9697076797        1.6240065428        2.0310146517
 O       -14.1857332723        2.4759883978        1.5547398746
 C       -16.3643740433        1.8205080043        2.4225952274
 C       -16.6677900233        3.4439250177        2.5934029230
 C       -17.1166623781        4.1041620318        1.2633322387
 O       -17.7945559246        3.4261760417        0.5727904270
 C       -16.9210113657        5.7253744237        0.9928987089
 C       -15.4342995926        5.7610207700        0.5435321998
 O       -14.4886089338        5.6203328860        1.2741442723
 C       -15.2255932769        5.7946888489       -0.9875236522
 C       -13.7338398000        5.7051257423       -1.5057673970
 C       -13.0431901197        4.3738917688       -1.6498765213
 O       -13.5871405218        3.3179890879       -1.5416233027
 C       -11.5016549603        4.3742045462       -2.1970597416
 C       -10.5744489816        4.9406791864       -0.9513426928
 O       -10.9164577798        4.5095526229        0.0902221948
 C        -9.5402032514        6.1246628869       -1.1073428748
 C        -8.1266813946        5.4942858398       -1.1449298502
 C        -7.0162338182        6.4909127572       -1.6716127984
 O        -7.2628778483        7.4223261772       -2.3943463230
 C        -5.5741014273        6.1358281208       -1.4816037084
 C        -5.1711943160        4.7107502650       -1.9836560359
 O        -6.0241783272        3.9306175086       -2.4041940269
 C        -3.8282815375        4.0491124990       -2.1832546425
 C        -3.6593168544        3.4316851469       -3.6401760225
 C        -2.3818485227        2.5350922505       -3.8950281533
 O        -1.8446202171        1.8194030317       -3.0167057647
 C        -1.7381014574        2.3153388657       -5.3648855340
 C        -2.1857486362        0.8439431695       -5.9743877231
 O        -2.8031907676        0.8250556870       -7.0295943371
 C        -1.4735991501       -0.4690782783       -5.5049078745
 C        -2.1378119905        3.4506398325       -6.3206056311
 C        -0.2354969859        2.2238191604       -5.2694578673
 C        -4.5790878409        7.1861425728       -2.1226546180
 C        -5.3037593520        6.1780141925        0.1040574238
 C       -11.1614921028        2.8457309821       -2.2011462091
 C       -11.4336030760        5.1993843015       -3.5264728773
 C       -17.9299335392        6.2544481315       -0.0771113486
 C       -16.9565203246        6.3990684379        2.3869602260
 C       -14.2809683276       -0.6589260333        0.7787549546
 C       -15.3879593388       -0.7989539170        3.0791833109
 C        -8.4523600780        4.1433755434        3.3883364219
 C        -7.5231221938        2.1566984141        2.4863802105
 H       -10.2745124145        2.3989180090        5.7650190099
 H        -9.2589624591        3.3836469130        6.6926093236
 H        -9.1202607164        1.6862622462        6.8862720913
 H       -10.4356717953       -0.1199054474        3.5266209677
 H        -9.5599563088        0.3740264547        1.8820848544
 H       -11.7079530377        0.0603315839        1.1512177007
 H       -12.0339577011        1.8088505439        1.7372364563
 H       -16.5527281649        1.2735904816        3.3225845030
 H       -16.9662836389        1.4629791673        1.5372258387
 H       -15.7191043238        3.8321550399        3.0046879278
 H       -17.4291425626        3.5805643069        3.2883498968
 H       -15.4414726643        6.7717459058       -1.4217638287
 H       -15.7752009284        5.0514384516       -1.3643209797
 H       -13.1974765604        6.5506148491       -1.2291004509
 H       -13.8657519077        5.8937735092       -2.5211175640
 H        -9.5933298532        7.0166007935       -0.4676973211
 H        -9.8161513115        6.3820879037       -2.0678319476
 H        -8.1404641547        4.5841110803       -1.7569098288
 H        -7.8936265892        4.9673471417       -0.2255490228
 H        -3.6720989490        3.1753138849       -1.6001408407
 H        -2.9167325260        4.6203221413       -2.1145903357
 H        -3.5783411230        4.2910675195       -4.3683370517
 H        -4.5468639148        2.8859058412       -3.9379327238
 H        -0.8251239693       -0.6720347747       -6.3540246005
 H        -2.0232706612       -1.4271378100       -5.4141953302
 H        -0.8719536785       -0.2215724450       -4.5919816287
 H        -3.1667414475        3.5372537968       -6.4735190491
 H        -1.6744227926        3.2134818713       -7.2352727178
 H        -1.7937350347        4.3386001054       -5.7962938583
 H         0.2227574019        3.0649342512       -5.7729047489
 H         0.2434446994        1.3678497412       -5.8130600586
 H         0.1488618878        2.1372324244       -4.2853436866
 H        -3.5486105610        7.1119111652       -1.6841973498
 H        -4.9798145608        8.1873826629       -1.8573406965
 H        -4.5930020844        6.9572835499       -3.2224592158
 H        -5.8448718447        6.9727204729        0.5650988333
 H        -4.3229363891        6.4540060431        0.3316173954
 H        -5.7584130623        5.3076498508        0.5321706106
 H       -11.0225550084        2.4819686741       -1.1721680196
 H       -10.2099680077        2.8404968931       -2.7512938890
 H       -11.9049032566        2.2405702665       -2.7037980177
 H       -10.4889610231        5.0008711877       -3.8841098719
 H       -11.6010474280        6.3480474687       -3.3844806227
 H       -12.1701536672        4.6860358105       -4.2313641283
 H       -18.9272533980        6.6671389497        0.3206836774
 H       -18.0339058468        5.5469336244       -0.9136686303
 H       -17.5633271064        7.2301540585       -0.3352236212
 H       -16.7120672059        7.5186462944        2.3169411116
 H       -16.0195255003        5.9624200284        2.7246206404
 H       -17.8293511862        6.1540644165        2.9254896044
 H       -13.9548554678       -1.7301367834        0.9963321796
 H       -13.6732226650       -0.0330114745        0.1247848754
 H       -15.3586549435       -0.8625203889        0.3413864834
 H       -16.1342782432       -1.3679085144        2.4630854516
 H       -15.7624392951       -0.3665513031        4.0669140394
 H       -14.7657664981       -1.6019123000        3.4813084217
 H        -8.3588835283        4.5198319503        2.2761973792
 H        -7.6101485043        4.5079529461        3.8958529332
 H        -9.3422023891        4.4942348205        3.7670311626
 H        -7.6139430965        2.5781892387        1.5047263337
 H        -7.3612652431        1.1096340509        2.3152673086
 H        -6.6096504093        2.4514675744        2.9010004000
 Na      -12.8320353128        3.8860162116        1.2165416636
