117

 C        -9.3374804329        2.4319130786        5.8359303659
 C        -8.3647826698        2.1688130749        4.7824676782
 O        -7.4460085043        1.3845575764        4.9198068984
 C        -8.7444690484        2.8695533250        3.2957101648
 C       -10.1606474155        2.2664974168        2.9051084472
 O       -11.0517789594        3.1006329193        2.7062861257
 C       -10.5003507220        0.7718823633        2.9408501399
 C       -11.6559938733        0.3252361686        1.9718531912
 C       -12.9842467414        0.2958449648        2.8820133685
 O       -12.8825376018        0.2879648679        4.0686615536
 C       -14.5712364947        0.1752502519        2.2067244107
 C       -15.0334360335        1.6457857347        2.1492224100
 O       -14.5029493208        2.4755726742        1.4442224299
 C       -16.5074181187        2.0381882399        2.7326439836
 C       -16.6908604133        3.4780961973        2.5807959890
 C       -17.1734991611        3.9817805050        1.2935388244
 O       -17.6718947239        3.3198490044        0.3946634788
 C       -16.9197040821        5.5304190665        1.1832391241
 C       -15.3711558747        5.6566923226        0.4767697961
 O       -14.3391846474        5.5667111390        1.1701062675
 C       -15.1960713671        5.7096472692       -0.9895267621
 C       -13.7226276206        5.8122962620       -1.5498074661
 C       -13.0269861311        4.5065697282       -1.5828350848
 O       -13.7018422418        3.5717176324       -1.1467170533
 C       -11.5416994739        4.3562248944       -2.2781616904
 C       -10.5545059349        5.1078366606       -1.1760903279
 O       -10.6116124972        4.7809579260        0.0450297879
 C        -9.4436274921        6.0974049116       -1.7946792656
 C        -8.0830597857        5.6209538309       -1.1680612032
 C        -7.0199398477        6.3826219531       -1.8729731288
 O        -7.2659891706        7.4157882978       -2.4494265013
 C        -5.4749626404        6.0786767073       -1.4828198877
 C        -5.0663298447        4.6508876735       -2.0233959580
 O        -5.9168303807        3.8308449725       -2.1569592089
 C        -3.6087092361        4.2843259072       -2.4623587201
 C        -3.4369154161        3.5150924684       -3.8567901108
 C        -2.3080732278        2.3333004657       -3.8330989652
 O        -2.1414287013        1.6448368135       -2.8787373301
 C        -1.6655064899        2.0245026029       -5.3332818939
 C        -2.2696465654        0.6007131871       -5.8286206197
 O        -3.1244900408        0.4508474421       -6.6547144286
 C        -1.6259289514       -0.6375128190       -5.1316107261
 C        -2.0592519901        3.0068918525       -6.5046992372
 C        -0.1060127249        2.0146653586       -4.9419926467
 C        -4.5066486687        7.2213589721       -1.9297085290
 C        -5.3919090471        6.0975926697        0.0037267178
 C       -10.8755079487        2.9729773654       -2.3068725000
 C       -11.5181624141        4.8808014912       -3.8484112445
 C       -18.0878257462        6.2399362451        0.1307691209
 C       -16.9713412187        6.2790995537        2.5443646887
 C       -14.5215109152       -0.4148815092        0.7268786882
 C       -15.3143306027       -0.7431310634        3.2080926336
 C        -8.9000691894        4.3230006646        3.5195616236
 C        -7.5338347861        2.3815869372        2.3779885757
 H       -10.4311299552        1.9192136588        5.7622828737
 H        -9.7225356273        3.3936224659        5.8494198828
 H        -8.8701834672        2.3796396988        6.8164344659
 H       -10.7629267168        0.6742849084        3.9627677270
 H        -9.6055323285        0.2452535714        2.8119774164
 H       -11.4098268454       -0.7399388501        1.7384642755
 H       -11.7232750834        0.8759476507        1.1139149196
 H       -16.6720089945        1.7586030838        3.8260061365
 H       -17.3672052259        1.6523833993        2.2038188967
 H       -15.7241792191        3.8844730889        2.7264392696
 H       -17.4058221314        3.7775340329        3.4170452437
 H       -15.6693424069        6.5744339502       -1.4175708474
 H       -15.6933672700        4.6773490919       -1.3693115830
 H       -13.1055798718        6.4736833222       -0.8684995472
 H       -13.6675082543        6.5128418291       -2.4802939386
 H        -9.6406029098        7.1168080117       -1.5107937783
 H        -9.3518277350        6.0541380192       -2.9468348054
 H        -7.9803012280        4.5362198291       -1.4371112145
 H        -7.9347589334        5.4956962424       -0.0610334409
 H        -3.1658978309        3.5203718650       -1.7600698916
 H        -2.8316203140        5.0092686166       -2.5552280309
 H        -3.2181641310        4.2622102312       -4.5572386955
 H        -4.4344090956        3.0864150673       -4.1679685341
 H        -0.5342698431       -0.7073102417       -4.9435751554
 H        -1.7528617032       -1.4690568079       -5.7678797483
 H        -2.2572342942       -0.7808033938       -4.2414451241
 H        -3.0908461490        2.7774546779       -6.8421452388
 H        -1.3234333840        2.6948022046       -7.2894094492
 H        -2.0251661398        4.0267701125       -6.1998549058
 H         0.1451400474        2.9328284510       -4.4827845824
 H         0.5648850942        1.9989943684       -5.7310185312
 H         0.1848641807        1.2022518000       -4.2254507076
 H        -3.5250303171        7.0902183866       -1.4302135280
 H        -4.9236680772        8.1637564400       -1.5765883546
 H        -4.3388533744        7.1496237143       -3.0337245235
 H        -5.7686615919        7.0812190309        0.4380091086
 H        -4.2849779258        5.9396891453        0.3604350221
 H        -6.0410190678        5.3311342445        0.4700102033
 H       -11.2736531411        2.4402931869       -1.4314772287
 H        -9.7816679681        3.0463991222       -2.2754232063
 H       -11.2054676121        2.4596800858       -3.2747876283
 H       -11.2218159766        3.9512028902       -4.4271009953
 H       -10.6287301009        5.4687957904       -3.8895108745
 H       -12.4045731677        5.3893468060       -4.2167544473
 H       -18.9741429128        6.3012879176        0.5798471885
 H       -18.1481684685        5.6862063006       -0.7785239575
 H       -17.9687903839        7.2864627610       -0.0062207182
 H       -17.3100615661        7.2608735843        2.3719541358
 H       -15.9460847193        6.4415309287        2.8642832142
 H       -17.6301825316        5.6704936295        3.2014875087
 H       -13.8812484390       -1.2583686193        0.7300845546
 H       -14.0986457427        0.4598019360        0.1487816365
 H       -15.4573984964       -0.6913177949        0.3526489690
 H       -16.3753144119       -0.6191256043        3.1699523864
 H       -14.9724754831       -0.4877177552        4.1618788538
 H       -14.9582716203       -1.7943149212        3.1892245350
 H        -8.8839867740        4.9098110019        2.6828335544
 H        -7.9409326244        4.6316696093        4.1022722209
 H        -9.8679052896        4.5432146658        4.0552944845
 H        -7.7565766693        2.4689970019        1.2510583159
 H        -7.2608099225        1.2830257586        2.4591000440
 H        -6.4821958907        2.7927274950        2.6066261582
 Na      -12.4186201504        3.8780025787        1.3130393529
