117

 C        -9.4115542865        2.4771927664        5.9373190530
 C        -8.5025649838        2.1567380377        4.7058877269
 O        -7.4891951331        1.5436437257        4.7925800252
 C        -8.8554872073        2.8173719416        3.3338185831
 C       -10.2572691791        2.3085641178        2.8293884159
 O       -11.0722489094        3.1462039269        2.5129804847
 C       -10.4784642725        0.7917630664        2.8947651868
 C       -11.6567708002        0.2423853169        2.1080660933
 C       -12.9629071902        0.2708935355        2.9038387170
 O       -12.8647431153        0.5114073061        4.0880253223
 C       -14.3861664634        0.2111226618        2.3247405853
 C       -15.0655883011        1.6136463187        2.0885478042
 O       -14.5292624976        2.5478013726        1.4653686309
 C       -16.4055363006        1.9685707876        2.8058059050
 C       -16.8018721594        3.5176921071        2.7183387710
 C       -17.0735514171        4.0675931377        1.2632053464
 O       -17.5595351963        3.4222451489        0.4113049670
 C       -16.7814472424        5.6498028402        1.0663956864
 C       -15.3368934553        5.6305690245        0.4610371165
 O       -14.3936498821        5.4285702443        1.1875133645
 C       -15.2454161264        5.7120888364       -1.0344827502
 C       -13.7696114151        5.8576132217       -1.4488526325
 C       -13.0607366442        4.4566365989       -1.4989378882
 O       -13.3958851792        3.4355586312       -0.9860372404
 C       -11.6002409361        4.4264910542       -2.2761436938
 C       -10.6086843278        5.2458863322       -1.4126974968
 O       -10.6019904191        5.0532010832       -0.2069579906
 C        -9.3981332339        6.0158792659       -1.9872749275
 C        -8.1709771015        5.6355404025       -1.2196418041
 C        -6.9035007539        6.4287211664       -1.8277338245
 O        -7.0981130363        7.3626418718       -2.5571737971
 C        -5.3438958704        6.0196350456       -1.4727394183
 C        -5.0303601676        4.6631444826       -2.2143914330
 O        -5.7944567664        3.7160059361       -2.0460674368
 C        -3.5434864088        4.3683926347       -2.5510964425
 C        -3.4519872322        3.5643934775       -3.8995040349
 C        -2.5164733207        2.3776108231       -3.9782859672
 O        -2.3077318582        1.6951803194       -2.9536778612
 C        -1.7234856673        1.9185012871       -5.2074705930
 C        -2.2602310304        0.3933537206       -5.5493209619
 O        -3.1496714420        0.3940539115       -6.3745640182
 C        -1.7280432199       -0.8450324194       -4.8815052024
 C        -1.9029566284        2.8931669671       -6.3696019089
 C        -0.2276169417        1.9831847398       -4.9488094548
 C        -4.4781443417        7.2158079511       -2.0345085427
 C        -5.2874377534        5.8599956743        0.0521656228
 C       -11.0882869333        2.9067663067       -2.2259012410
 C       -11.6408765666        4.8769448339       -3.7235909656
 C       -17.9298819612        6.0425405555        0.1601336960
 C       -16.8356265678        6.3249363532        2.4492412999
 C       -14.5484949871       -0.3177032095        0.8886026261
 C       -15.2891047041       -0.8205717229        3.0941245032
 C        -8.8267933422        4.3129358555        3.5677298592
 C        -7.7949993731        2.5054707627        2.3095932056
 H       -10.2684325843        1.9455621809        6.1077758756
 H        -9.9500771073        3.4352769620        5.7597813069
 H        -8.8430618817        2.6687862287        6.7904051920
 H       -10.5281400325        0.6705771365        3.8762260262
 H        -9.5302192598        0.2963826229        2.6084736549
 H       -11.3374190331       -0.8082755630        1.9213267363
 H       -11.7489188020        0.7453110748        1.1300150971
 H       -16.3804076069        1.6011884732        3.8989685846
 H       -17.2947777254        1.4462058739        2.3506601527
 H       -15.8864785311        3.9704091072        3.1621988364
 H       -17.6945903316        3.6734633173        3.3728779851
 H       -15.8284252101        6.6271687370       -1.4174141181
 H       -15.5553814264        4.7621369007       -1.5471208227
 H       -13.1557677514        6.5817548213       -0.7897543073
 H       -13.6555004162        6.4613505772       -2.4182011121
 H        -9.6123125090        7.0513965768       -1.5310275793
 H        -9.2524679859        6.1159565816       -3.0882377281
 H        -8.0660053212        4.5397239279       -1.3151874367
 H        -8.1889847843        5.6930902143       -0.1624317149
 H        -3.0623503174        3.7475743993       -1.6868030001
 H        -2.8298338614        5.2080826883       -2.7592645186
 H        -3.2839769523        4.2903261748       -4.6242607381
 H        -4.5038368311        3.2464298705       -4.0773872066
 H        -0.7567451775       -0.8271139716       -4.4315414724
 H        -1.5790391652       -1.5748212859       -5.6368563883
 H        -2.5795483481       -1.2031993097       -4.2373954817
 H        -2.9663870470        2.9733031370       -6.5707081250
 H        -1.2824910236        2.5353063011       -7.2464968507
 H        -1.5834829337        3.8844975676       -5.9574307810
 H         0.1709417812        2.6835846553       -4.2550243575
 H         0.2923889232        2.2729888215       -5.9058077271
 H         0.1983228515        0.9927452597       -4.6722892477
 H        -3.4955795975        7.1111613733       -1.7197980924
 H        -4.9184033081        8.0475773609       -1.6219596923
 H        -4.4354634631        7.2435116471       -3.0960925093
 H        -5.6158385503        6.8074983701        0.6118525973
 H        -4.2412054931        5.5490411766        0.3790633165
 H        -5.9482106586        5.0320950501        0.4049112527
 H       -11.3885629765        2.5637545597       -1.2584624902
 H       -10.0260257579        2.8798624605       -2.3063726524
 H       -11.5482476372        2.3285526067       -3.0613638633
 H       -11.9674920775        4.1618445587       -4.3088610284
 H       -10.6128910596        5.1412772765       -4.0304462539
 H       -12.2033210852        5.7669265487       -3.7054889330
 H       -18.8372378466        5.6857198857        0.7042940272
 H       -17.8788377516        5.6004658404       -0.8289979165
 H       -18.1938092449        7.0660278116        0.1515412271
 H       -16.7461914028        7.4531461040        2.4330998537
 H       -15.9175079029        6.0304080560        2.8855864976
 H       -17.6874685362        5.9131655139        2.8701236596
 H       -14.0281744655       -1.2295795143        0.7374919812
 H       -14.1720016527        0.4132949762        0.2268518317
 H       -15.6376817016       -0.4252231198        0.6815609607
 H       -16.2496744048       -0.3640722341        3.2193706685
 H       -14.8983093195       -1.0097438389        4.0824355382
 H       -15.2127543465       -1.8046475720        2.6881185390
 H        -9.1110040911        4.8045314448        2.5600906113
 H        -7.8336063462        4.7379568923        3.8028490446
 H        -9.6040228777        4.5814173874        4.1800713887
 H        -7.9817860684        2.7978655374        1.2419210510
 H        -7.2609198662        1.5579068414        2.2463115417
 H        -6.9728260747        3.0572464102        2.6952871835
 Na      -12.4615531771        3.9351894128        1.1648105650
