117

 C       -12.5286324766       -1.9596929981       -8.6031143412
 C       -11.6802839638       -1.5956848497       -7.2612938673
 O       -11.6750831159       -2.4756004327       -6.4122091697
 C       -10.6667994561       -0.3773538017       -7.1001782931
 C       -10.8231869226        0.1871174480       -5.6130159911
 O       -11.3187000585        1.2871431162       -5.4301230690
 C       -10.2908396954       -0.6455465922       -4.4072730099
 C       -10.8889447175       -0.2137443189       -2.9848053808
 C       -10.7949576181       -1.2211516252       -1.9224196172
 O       -11.2528182123       -2.3437941796       -2.0879999514
 C        -9.9931008959       -0.7877814770       -0.5296780230
 C       -10.9052874024        0.1617987148        0.1593536189
 O       -11.1609645812        1.2904945107       -0.2880921869
 C       -11.3730564159       -0.0870475242        1.5813756076
 C       -12.6874003384        0.6978540944        1.7821884281
 C       -12.4021374813        2.2373178572        1.8090533100
 O       -11.2660227886        2.6142085767        2.0724505403
 C       -13.4757402046        3.2821423305        1.4432151028
 C       -13.2242183146        4.6539696727        2.2152370660
 O       -12.3500011354        4.8127032206        3.0084656676
 C       -14.1926807292        5.8257779276        1.9412332226
 C       -13.5678250938        7.2607936005        2.0957564897
 C       -12.2354661938        7.4659184030        1.3131750544
 O       -12.0677027909        6.9636632106        0.2438024896
 C       -11.1862041181        8.3847265393        1.8542029306
 C        -9.7325435498        7.6653275551        1.4042536430
 O        -9.2311046794        6.8663138903        2.1461595841
 C        -9.0918182289        8.0846727133        0.0503553593
 C        -7.5526425988        7.9790163233       -0.0560013575
 C        -6.8713969286        8.6534037063        1.1543091053
 O        -7.5151244435        9.3970143787        1.8977193374
 C        -5.4076201373        8.1383511022        1.3860903311
 C        -5.3279955508        6.5738628003        2.0142047316
 O        -4.9034282808        5.7053088255        1.2642864435
 C        -5.7411282047        6.4138693854        3.4905032706
 C        -5.6997914555        4.9737395865        4.0349683137
 C        -6.9229136069        4.3279222885        3.3164374068
 O        -8.0427515789        4.5132467705        3.7295795351
 C        -6.7104636277        3.2938851257        2.1126136465
 C        -7.3755864005        3.8477467452        0.7715283553
 O        -8.4189939720        4.4439577338        0.9356398008
 C        -6.7599171977        3.4996460824       -0.5476084290
 C        -5.2037581991        2.7925657603        1.9962948501
 C        -7.7848333478        2.1214677348        2.3883740586
 C        -4.5346217256        8.3324834733        0.1998730194
 C        -4.8478002793        9.0993302418        2.5033611777
 C       -11.3598791653        9.7636675906        1.1873781793
 C       -11.0636467176        8.4453245884        3.4183142351
 C       -13.2988134897        3.4353956048       -0.1353948681
 C       -15.0275437663        2.9089005084        1.7176353924
 C        -9.6716422458       -2.0956345197        0.2613036724
 C        -8.6565557304       -0.0868519016       -0.7850398349
 C        -9.1657713725       -0.7363264401       -7.3697040482
 C       -10.9937243190        0.8629663833       -8.1372061036
 H       -12.7207952386       -3.0216569649       -8.5076985264
 H       -11.8303336042       -1.6418327427       -9.3435644787
 H       -13.4234760611       -1.3263719531       -8.5912997427
 H        -9.1494720572       -0.5238571232       -4.3173155603
 H       -10.6198556601       -1.6510895948       -4.6249348277
 H       -11.9729194431        0.1228406601       -3.1543182419
 H       -10.4587062824        0.6986462608       -2.6614467989
 H       -10.5273654560       -0.0078668412        2.3100805748
 H       -11.6303199415       -1.1932785796        1.6277267616
 H       -13.2628752164        0.4051698968        2.7093867303
 H       -13.3656235693        0.4593005873        1.0007562425
 H       -14.9718960759        5.7625848188        2.6436526350
 H       -14.6766538860        5.5012352373        0.9723919270
 H       -13.4404222188        7.5350419187        3.1390299247
 H       -14.2972027077        7.9638767492        1.7002728056
 H        -9.4461994682        9.0988790317       -0.0686372920
 H        -9.6361491890        7.5709517124       -0.7823360248
 H        -7.2671765672        8.6331920321       -0.9000954463
 H        -7.1675459122        6.9438268781       -0.1415401150
 H        -6.7092479178        6.7306636683        3.7273203030
 H        -5.1115191690        7.0024084108        4.0949848477
 H        -5.7841171861        5.0619857480        5.1016001445
 H        -4.7898086662        4.4967522916        3.7724686468
 H        -7.0710376756        2.5232661860       -0.8607656341
 H        -5.6792497626        3.2595088743       -0.6046460094
 H        -6.8477657397        4.1839405362       -1.4062498253
 H        -4.8549636861        2.4854421625        3.0710207899
 H        -4.4784588993        3.4602246676        1.6577636364
 H        -5.1664199626        1.8484864317        1.5028219696
 H        -8.7455396629        2.6316644329        2.4725276003
 H        -7.6685024630        1.6204765135        3.3505968625
 H        -7.9535586103        1.4915537815        1.6066798089
 H        -4.5097582319        9.4164909155        0.0678697050
 H        -4.6953553785        7.8602838831       -0.7408146365
 H        -3.5874053251        7.9163026187        0.6184141062
 H        -3.8582542256        8.9097561279        2.7644094346
 H        -5.4919474353        9.0672862616        3.3629701943
 H        -4.9209491582       10.0622243053        2.0956758378
 H       -12.1710894714       10.2722054742        1.6672641812
 H       -11.6633335150        9.7116707695        0.1448722184
 H       -10.4932868275       10.3996196716        1.3146582970
 H       -11.0228142126        7.5200419838        3.9570384184
 H       -11.9573954566        9.0224246088        3.8367610008
 H       -10.1120519261        9.0175179866        3.6511114646
 H       -12.2141064819        3.2778363358       -0.2815317045
 H       -13.7198110721        4.4377762878       -0.4601113994
 H       -13.8396157648        2.6764967867       -0.6266961404
 H       -15.2442191754        1.9370206198        1.2097958184
 H       -15.6814752859        3.6787916693        1.2904375821
 H       -15.0707085956        2.9085237941        2.7837205508
 H        -8.9314278597       -2.6319271584       -0.2919114550
 H       -10.5532861042       -2.7617245948        0.2401053949
 H        -9.3930806400       -2.0429201496        1.2734243791
 H        -7.8782793225       -0.3872675330       -0.1076013786
 H        -8.7548449309        0.9798176887       -0.5150362946
 H        -8.3370277325       -0.1368994997       -1.8561206759
 H        -8.8745572428       -1.5590411029       -6.6740007496
 H        -8.5191280760        0.1523081660       -7.2605565459
 H        -8.9209240483       -1.0398831550       -8.3820605729
 H       -11.9785879134        1.2365646479       -7.8270868333
 H       -10.9672628764        0.5710872991       -9.1575298574
 H       -10.2865434905        1.6333760432       -7.9428755774
 Na      -10.0012078644        4.4214426444        2.4364624724
