117

 C        -9.3904034498        2.4648219222        5.9897510743
 C        -8.5459276147        2.2487435344        4.7129079451
 O        -7.5328919066        1.5657606446        4.8185256550
 C        -8.8924028419        2.9159094507        3.3875590263
 C       -10.2945360662        2.3354482133        2.8310154400
 O       -11.1214260111        3.0902636215        2.3751616743
 C       -10.4433434343        0.7362994151        2.7463407383
 C       -11.7398734933        0.2394368299        2.1212378405
 C       -13.0017327873        0.4775619829        2.9953937091
 O       -12.9387620345        0.6919533985        4.2006822805
 C       -14.3981962896        0.2721943423        2.2824673861
 C       -15.0487460162        1.7075448383        2.2857864369
 O       -14.4220229112        2.5007690627        1.5588296146
 C       -16.3570745819        1.9115848172        2.8822455599
 C       -16.8600789487        3.4234987465        2.8271074517
 C       -16.9181851169        4.0485662086        1.4003392710
 O       -17.4023378225        3.4020629523        0.4400636857
 C       -16.8021395371        5.5157021145        1.1533134327
 C       -15.3271357687        5.5341648932        0.4810238374
 O       -14.4240096471        5.3559390669        1.2509412270
 C       -15.2096403331        5.7015996620       -1.1006619769
 C       -13.7098717380        5.6861476869       -1.4932697958
 C       -12.9570285455        4.4298874148       -1.5399217770
 O       -13.2773732848        3.4760064674       -0.8664200709
 C       -11.5721711363        4.4250566868       -2.3260353813
 C       -10.5278181648        5.2631642511       -1.4627163284
 O       -10.7808655947        5.3146167078       -0.2799128895
 C        -9.3530314499        5.9639809375       -2.0994062706
 C        -7.9849336776        5.7139648737       -1.4137746765
 C        -6.7438466574        6.4459140413       -1.8791998673
 O        -7.0042814085        7.3458264302       -2.6911520099
 C        -5.3386914241        6.0055948643       -1.4446641137
 C        -4.8667971533        4.5369707840       -2.0079387420
 O        -5.7345517685        3.6684023740       -2.0809006762
 C        -3.5494955058        4.3718904530       -2.7034210748
 C        -3.5368319761        3.5981157528       -4.0978413853
 C        -2.5705582849        2.3660762112       -3.8709454929
 O        -2.5305573118        1.7472283944       -2.8060195941
 C        -1.6903483327        1.8727736143       -5.1625327571
 C        -2.2860751487        0.3584006436       -5.3789828485
 O        -3.2391731986        0.2726770506       -6.1442381333
 C        -1.8422701308       -0.8600802681       -4.6431687448
 C        -1.9497910920        2.7923002204       -6.4501241945
 C        -0.1882023330        1.8210321101       -4.8082802668
 C        -4.5035794691        7.1460104526       -2.0561855038
 C        -5.1397110785        5.6551408530        0.0464145510
 C       -11.2512333207        2.8771300061       -2.1918762310
 C       -11.8550790964        4.9401426063       -3.7590868960
 C       -17.8252831912        6.0037128440        0.1465469175
 C       -16.6863018105        6.5430345122        2.3519514026
 C       -14.3776597102       -0.2922206048        0.6975868641
 C       -15.2309928952       -0.8053822894        3.1587457714
 C        -8.8806050651        4.5037979632        3.5327891196
 C        -7.9951183511        2.5269679042        2.1764649023
 H        -9.9160217680        1.5752186963        6.0780956448
 H       -10.2780670924        3.1003675741        5.9501570816
 H        -8.8427047170        2.6920261567        6.8911521788
 H       -10.3586700738        0.4482278088        3.8948891944
 H        -9.4859010470        0.3305207345        2.3290323684
 H       -11.6121421602       -0.8216868751        1.9289605944
 H       -11.9417609377        0.7741081385        1.0947826052
 H       -16.4435370249        1.4620171355        3.8785989373
 H       -17.0068145126        1.2160161207        2.2170254484
 H       -16.1949029583        3.8982256304        3.6192842139
 H       -17.8891872601        3.4571063006        3.1055818837
 H       -15.6097168417        6.7321444395       -1.3493223319
 H       -15.6520802912        4.9916603587       -1.6791675742
 H       -13.1184765293        6.3929822305       -0.8799659657
 H       -13.5702533615        6.1865626376       -2.3986796139
 H        -9.5091909776        7.0813829566       -2.0680211497
 H        -9.3874601014        5.6190088394       -3.0966153466
 H        -7.8948807932        4.6538862801       -1.3372353267
 H        -7.9292193204        5.9746503101       -0.3816157978
 H        -2.8591923642        3.7626829947       -2.0907576314
 H        -2.9827299119        5.3396125395       -2.8835673534
 H        -3.4321906696        4.3295613062       -5.0013613869
 H        -4.5148062351        3.2430703573       -4.1318216517
 H        -1.0291544220       -0.6976810956       -3.9739819303
 H        -1.3183126341       -1.5659145963       -5.3631874312
 H        -2.7350883043       -1.3678440841       -4.3015058326
 H        -3.0251732349        2.9641470895       -6.4174393323
 H        -1.6135169681        2.2914833005       -7.3378335937
 H        -1.4169422514        3.7899617124       -6.2977863973
 H         0.1918794623        2.5027210482       -3.9708443634
 H         0.4929874298        2.1345541104       -5.6760631506
 H         0.1108491697        0.8458589545       -4.5081996932
 H        -3.5442008818        6.8655378866       -1.7723680270
 H        -4.8693188308        8.0462655574       -1.5824006254
 H        -4.5085984669        7.2266410525       -3.0615862719
 H        -5.3077079832        6.4027293362        0.8037111694
 H        -4.1306875528        5.3008633828        0.0331059198
 H        -5.6532476562        4.7037947022        0.3732468990
 H       -11.0355105163        2.7108294006       -1.1507229526
 H       -10.3131387377        2.7641896260       -2.7465608349
 H       -11.9445569297        2.2693466520       -2.6037965857
 H       -12.9074977258        4.7051611435       -4.0285630163
 H       -11.2244850555        4.6592279227       -4.5497721223
 H       -11.7846365889        5.9596770311       -3.5138795004
 H       -18.9395397684        5.8209945340        0.4465611839
 H       -17.6026836277        5.6243650303       -0.8648863243
 H       -17.8189127306        7.1278175283        0.1548233127
 H       -16.2027840560        7.4412644617        1.9577384300
 H       -15.9888272158        6.2123652969        3.1060057882
 H       -17.6877789119        6.7070898639        2.6530947128
 H       -13.9277197931       -1.3557304714        0.6702536158
 H       -13.7309100650        0.2576251965        0.0202233723
 H       -15.4175158744       -0.2529120128        0.2930639982
 H       -16.2159865392       -0.3853446279        3.3647822089
 H       -14.7724863480       -0.8608908047        4.1930321719
 H       -15.0778144633       -1.7943718190        2.8261408756
 H        -9.2232398761        4.9061759544        2.5219574324
 H        -7.9403480433        4.8808677226        3.6134015804
 H        -9.6275252029        4.8885596058        4.2293969174
 H        -8.2615364904        2.9496585852        1.2885541425
 H        -7.7161623322        1.5413834654        1.9929824698
 H        -7.0179138463        2.8412564134        2.4415855517
 Na      -12.6374626256        4.0571532524        0.9081593509
