117

 C        -9.4622661611        2.7355736681        5.9443065025
 C        -8.5954614292        2.5787526119        4.6397844552
 O        -7.6663752067        1.7918290121        4.5858858271
 C        -9.1032176134        3.2116365005        3.2484132656
 C       -10.3228408856        2.3410830462        2.6336402518
 O       -11.1525641623        2.9449108304        1.9876072925
 C       -10.2075519305        0.8015862843        2.7458619373
 C       -11.5576551647        0.0920726304        2.3552689200
 C       -12.7314940904        0.6959340995        3.0954007503
 O       -12.6360084144        1.1941789226        4.2087652256
 C       -14.2040553943        0.7275948045        2.4209571171
 C       -14.7664915214        2.0791979652        2.4852733536
 O       -14.2384955167        3.1063819205        2.0704974444
 C       -16.0867619569        2.1860109520        3.1551017122
 C       -16.8310466904        3.6201478002        3.0713150397
 C       -16.8269466562        4.0531592785        1.4931583839
 O       -16.6580412204        3.2348106333        0.6175912798
 C       -16.6703197324        5.6496446009        1.1913457302
 C       -15.2075866843        5.7409978972        0.4846257236
 O       -14.3109982263        6.2210534656        1.1526753366
 C       -15.0039751724        5.2295109649       -0.8962881606
 C       -13.7048644050        5.5800448547       -1.6436505128
 C       -13.0851661752        4.2865579651       -2.0774244783
 O       -13.6684652579        3.2644079248       -2.0938979610
 C       -11.4854868728        4.4414524443       -2.8397969597
 C       -10.4857297272        5.0223077248       -1.7635744181
 O       -10.7625693180        5.1507379397       -0.5873082704
 C        -9.1537024800        5.6409342150       -2.3995245614
 C        -8.0552302928        5.5453049851       -1.3889038019
 C        -6.8172607320        6.1941262132       -2.1669193966
 O        -6.7478552385        6.9743711210       -3.1441522514
 C        -5.3708745165        5.7524318606       -1.5439559811
 C        -4.9550288532        4.4846491870       -2.5203264418
 O        -5.7733500960        3.5643246408       -2.2615158233
 C        -3.9255110355        4.6202485130       -3.5612044379
 C        -3.5201983141        3.3134097302       -4.3707970124
 C        -2.6202411494        2.3172430121       -3.6874830866
 O        -2.5122913571        2.4022863554       -2.4393233736
 C        -2.0374548850        1.1928002696       -4.5708635062
 C        -2.8577416697       -0.2315036677       -4.4154332503
 O        -3.5512332560       -0.6840971769       -5.3388994482
 C        -2.6297489279       -1.0128927362       -3.1559479009
 C        -2.0913471555        1.5221998998       -6.1057970593
 C        -0.6088284288        0.8494045421       -4.1356211672
 C        -4.4649413996        7.1060568217       -1.5397844033
 C        -5.3199386989        5.1204516000       -0.1402547007
 C       -10.7890409575        2.9692732960       -3.1085762248
 C       -11.5849004910        5.1444138626       -4.2186778760
 C       -17.9283438683        5.9757429778        0.1609728627
 C       -16.6532076037        6.6383072924        2.3657231868
 C       -14.4808595490        0.3026463582        0.9301913956
 C       -14.9809605841       -0.3871230379        3.2061342922
 C        -9.6269643141        4.6562484651        3.5998513100
 C        -7.8814801627        3.1035750029        2.2802437735
 H        -8.8254632928        2.4895891058        6.7125240192
 H       -10.4809673120        2.1538672419        6.0527666578
 H        -9.7154768857        3.7836756313        6.3160594407
 H        -9.9306842019        0.6831711748        3.7065603456
 H        -9.2840951369        0.4867128029        2.1610600229
 H       -11.4156252560       -1.0250951589        2.5818911750
 H       -11.7316090619        0.1032934556        1.3092236254
 H       -15.7893345606        1.8354309259        4.1741844135
 H       -16.7621969408        1.4458208931        2.9878084261
 H       -16.3753056130        4.2523826227        3.7652647044
 H       -17.8649741283        3.4013443925        3.4096218713
 H       -15.9072337292        5.4804627180       -1.5125509685
 H       -15.1208579634        4.1631246378       -0.8374297695
 H       -13.0509352355        6.0573284724       -0.9729391868
 H       -14.0032901791        6.3064942497       -2.3479275828
 H        -9.4523457115        6.6029812761       -2.5848668977
 H        -8.8555616003        5.2324782916       -3.3425961546
 H        -7.9151309645        4.4907213304       -1.0975536617
 H        -8.3271346901        6.1928299589       -0.5612283575
 H        -3.0514426371        5.1615742214       -3.2843291641
 H        -4.4085079303        5.2080973175       -4.2944994775
 H        -3.0416104596        3.6206979421       -5.2450275192
 H        -4.5011677621        2.7559447515       -4.6463291850
 H        -3.5318381834       -1.6631234176       -2.9916967021
 H        -2.6408696013       -0.2998306864       -2.3229965054
 H        -1.6412388259       -1.5682053228       -3.0842613466
 H        -3.1120602379        1.7442771858       -6.3513362289
 H        -1.8550213331        0.5670428786       -6.6881778482
 H        -1.3568967706        2.2201713678       -6.4876763501
 H         0.0977733154        1.3573019117       -4.7597113525
 H        -0.3808803980       -0.2537452799       -4.0078614783
 H        -0.3854409393        1.3648731481       -3.1747836769
 H        -3.4235228502        6.8074836711       -1.2519669082
 H        -4.7589208742        7.7379336628       -0.6869783051
 H        -4.5964356624        7.6368809600       -2.4850146789
 H        -5.9237356512        5.7105954800        0.5402074391
 H        -4.3305200925        5.1007237155        0.3509116421
 H        -5.6807259247        4.0986925044       -0.1000765085
 H       -10.2536274258        2.9724604717       -4.0225975985
 H       -11.5640027691        2.2666415661       -3.2581576606
 H       -10.0528209167        2.7194967066       -2.3619398634
 H       -11.5882410954        4.3914014688       -5.0123271353
 H       -10.7793536467        5.9523414151       -4.4706410178
 H       -12.6399750631        5.6021246034       -4.1392702625
 H       -18.7720507584        5.2377519184        0.3310167985
 H       -17.7060033489        5.8239703062       -0.9123324534
 H       -18.1391548928        7.0371743098        0.2112306669
 H       -16.7141942905        7.7168452375        1.9327253151
 H       -15.7312056564        6.3550838384        2.8541989327
 H       -17.4798678648        6.5403167475        3.0090273268
 H       -14.7019687659       -0.8108322954        0.8936169991
 H       -13.7665256189        0.4663016724        0.1178736026
 H       -15.5038057182        0.8294572017        0.5653214804
 H       -14.2390308345       -1.2273327842        3.2407373655
 H       -15.8408048527       -0.6130111292        2.5347488029
 H       -15.1707740503       -0.2502632689        4.3019755893
 H        -9.9153193271        5.4100425558        2.7261368682
 H        -8.8903517833        5.0749738278        4.2826288764
 H       -10.4006824990        4.5162851325        4.2657438861
 H        -8.2460875404        3.4916408528        1.2892484369
 H        -7.5788265912        2.1275419384        1.9424401639
 H        -7.0844451435        3.7889003300        2.3398454383
 Na      -12.3813930991        4.5495609666        0.9216501967
