117

 C        -9.5813638619        3.3244773441        5.9695950878
 C        -8.8958457424        2.9935574259        4.6031874947
 O        -7.9771492164        2.1538506061        4.6083465309
 C        -9.1856542388        3.5485185459        3.2197255390
 C       -10.0656438000        2.4199216463        2.2791872250
 O       -10.7342375442        2.7900502328        1.3678991129
 C        -9.9676797035        0.9142257997        2.5544045175
 C       -11.3697719112        0.3149064339        2.2077237178
 C       -12.4470152017        1.1052739466        2.9887033174
 O       -12.2232604612        1.8008738742        3.9823303011
 C       -13.9027137940        1.0797099420        2.4525309599
 C       -14.3715160498        2.5186066783        2.8021921088
 O       -13.6097643892        3.4317134483        2.6018700924
 C       -15.6631318358        2.7803538955        3.5691361920
 C       -16.0162430959        4.2659783695        3.1248006709
 C       -16.5037653157        4.4402660749        1.6780917214
 O       -17.3367684086        3.7171110973        1.1602883478
 C       -16.1818232561        5.8688716658        1.0222736918
 C       -15.0862690300        5.5016859064        0.1499612679
 O       -13.9981617760        5.8588208789        0.6109089453
 C       -15.1858556415        4.9508173217       -1.3114347262
 C       -14.0538009321        5.3069873821       -2.3542926041
 C       -12.9437675891        4.2376333444       -2.3590564810
 O       -12.9430443837        3.2265273422       -1.7506470127
 C       -11.6626748860        4.5852727980       -3.3398702680
 C       -10.5846179726        4.8298531783       -2.1419616038
 O       -10.7453131313        4.6921657000       -0.9505052114
 C        -9.2119626145        5.3380773610       -2.5883213253
 C        -8.0564169417        4.7523987764       -1.7341819177
 C        -6.8398408034        5.6184185791       -2.0719316450
 O        -7.0191967287        6.5777034807       -2.8328322406
 C        -5.4220219202        5.1664254878       -1.7350644886
 C        -5.1661942000        3.9304512343       -2.8525978337
 O        -5.9659037268        2.9665678642       -2.7438477226
 C        -4.3609775397        4.1649985051       -4.0665227693
 C        -3.8423129131        2.8335513387       -4.4698600202
 C        -2.7504759443        2.1148771478       -3.4619400789
 O        -2.1390385927        2.8185241368       -2.6471095010
 C        -2.4403784983        0.5669048662       -3.8277543969
 C        -3.6042221665       -0.1515411108       -3.0798506564
 O        -4.1289012178       -1.0780678242       -3.6685688755
 C        -4.0426616910        0.4669227391       -1.7384531778
 C        -2.3965608988        0.1457551072       -5.3329910333
 C        -1.0943575047        0.0116215397       -3.0753356700
 C        -4.3358939082        6.3259902038       -1.8882447605
 C        -5.4131740857        4.7409202657       -0.2639047132
 C       -11.0777676026        3.2555934843       -3.9028409488
 C       -11.7652485286        5.6140956958       -4.5214095268
 C       -17.4739172695        6.1640329116        0.1504851985
 C       -15.9913192760        7.0770363298        1.8721932008
 C       -13.9021747990        0.7319190933        1.0318409654
 C       -14.6218208611        0.0255540612        3.1707534492
 C       -10.0964742094        4.8136582939        3.2511870460
 C        -7.8567299338        3.8734679010        2.6119554955
 H        -9.1160478547        2.6906936523        6.8795146497
 H       -10.6145519120        3.3055275420        5.9799856649
 H        -9.4489465827        4.2505414248        6.3697118172
 H        -9.6487909575        0.8308274223        3.6703740670
 H        -9.1003367437        0.6037224450        1.8638389897
 H       -11.2550809688       -0.7840685808        2.4219974778
 H       -11.4712411849        0.3601714566        1.1711524883
 H       -15.3939706635        2.6106771339        4.7347564437
 H       -16.5033055392        2.0372441506        3.5151988854
 H       -15.1898284374        4.9009487556        3.4149939658
 H       -16.8781968021        4.5427764733        3.8614964483
 H       -16.1672374229        5.2153975453       -1.6976623360
 H       -15.3941549727        3.8265867434       -1.2355052745
 H       -13.5777952381        6.2124555339       -1.7929584086
 H       -14.4911529770        5.6130010837       -3.3701769793
 H        -9.1443494081        6.4864186794       -2.6759128389
 H        -8.8533519401        5.0311753211       -3.6679274965
 H        -7.8005266111        3.8088030137       -2.2061307511
 H        -8.2256038865        4.7750752393       -0.6104010944
 H        -3.5635457918        4.9679636765       -3.9493646180
 H        -5.0015437859        4.5285063024       -4.9422262001
 H        -3.2741565903        2.8638065750       -5.3608942493
 H        -4.8167388727        2.1514470338       -4.6212610587
 H        -3.2406369945        1.0102835355       -1.1924231472
 H        -4.6705546081       -0.0830574078       -1.0810915176
 H        -4.8434635564        1.2069854989       -2.0040784549
 H        -2.9127190390        0.6674882729       -6.0986138820
 H        -2.6861433361       -0.9441355686       -5.2855064450
 H        -1.3926170783        0.2193795620       -5.6563992328
 H        -1.1831993840       -0.3069196317       -2.1133375783
 H        -0.4101599901        0.8526621092       -3.0181513512
 H        -0.7240351453       -0.7534577261       -3.7048195823
 H        -3.3328960297        5.7632455423       -1.9470877695
 H        -4.3966648929        7.0641533915       -1.0251530870
 H        -4.4395568593        6.7697486374       -2.8624239026
 H        -5.8689661252        5.4867259973        0.3738920924
 H        -4.3599540475        4.6348726484        0.0431340384
 H        -6.0461940638        3.9448284167        0.0588429805
 H       -10.0476516554        3.1001362940       -3.5605021270
 H       -10.9155611362        3.2486243642       -4.9978489463
 H       -11.7752899795        2.4007906861       -3.7294994905
 H       -11.0136849133        5.5870473660       -5.2924172393
 H       -11.6963171393        6.5751032102       -4.1472070996
 H       -12.6740312507        5.6075908702       -4.9620673070
 H       -18.4079019861        6.0882794177        0.7488113682
 H       -17.4692660517        5.4541079930       -0.5894050046
 H       -17.5536962296        7.1066969405       -0.2312634312
 H       -15.9202850977        8.0320455752        1.1903529355
 H       -15.0049294577        7.0151391374        2.3174982247
 H       -16.7060004224        7.0464447067        2.6367388969
 H       -13.2989968922       -0.1311392928        0.9373653081
 H       -13.5373316975        1.4204667589        0.3757321789
 H       -14.8340874030        0.4616571018        0.5339153946
 H       -14.1274945693       -0.9214650849        2.8773267667
 H       -15.6564056804       -0.0339330979        2.8119822559
 H       -14.7024135120        0.1816179688        4.2442503751
 H       -10.3652748558        5.1343150863        2.1774250990
 H        -9.7249253693        5.5843479712        3.8086507138
 H       -11.0037687586        4.4290602609        3.5914584213
 H        -7.7670778792        4.3291671670        1.5866125474
 H        -7.0222423888        3.1185336497        2.6223840618
 H        -7.4852494758        4.8123728158        3.1713071536
 Na      -12.5021040732        4.1161395441        0.6410031554
