117

 C        -9.8410175087        3.7548237283        5.6179199712
 C        -8.9603026217        3.1534837849        4.6661376875
 O        -8.1772529356        2.2832070594        4.7628045054
 C        -9.2478281024        3.7156524449        3.1004570984
 C        -9.7062307834        2.4882019064        2.2444792012
 O       -10.3727355975        2.7122067979        1.2044694225
 C        -9.6688612979        1.0168673224        2.7041663783
 C       -11.0546306385        0.4976949992        2.4122989154
 C       -12.1289026881        1.2784943832        3.1649425116
 O       -11.9746919921        1.6235659750        4.3070227075
 C       -13.5569015745        1.3828163568        2.6077476775
 C       -14.1646753631        2.8605371854        2.5998461881
 O       -13.5925232620        3.6305815835        1.7966055304
 C       -15.4328463309        3.3188478913        3.4790811087
 C       -15.9103114545        4.6938247490        3.1258989508
 C       -16.4349749360        4.7488339788        1.7006497143
 O       -17.1758400632        3.8692909800        1.3448251106
 C       -16.0948662180        6.0355484526        0.8839810251
 C       -15.0809905209        5.5248243607       -0.2160188011
 O       -13.9565405979        5.5771176332        0.2192632370
 C       -15.5259065882        4.7452018971       -1.4521921459
 C       -14.6196224637        4.9689439148       -2.6394510976
 C       -13.2337590373        4.0862517036       -2.5211107554
 O       -13.2630207394        3.3154119772       -1.6014378629
 C       -12.0557021892        4.5183213500       -3.3139528906
 C       -10.5859080741        4.8365713635       -2.3867051730
 O       -10.5355558773        5.1577178762       -1.1877758001
 C        -9.1845119009        4.9987321732       -3.0328116182
 C        -7.9694139157        4.7197768360       -2.0624253726
 C        -6.6553838506        5.5708615666       -2.3347823897
 O        -6.6594236525        6.7304508354       -2.6103202016
 C        -5.2366191496        4.9301646783       -2.0837789057
 C        -5.1540846738        3.7287592829       -3.0963824205
 O        -5.7883031719        2.7009574627       -2.9827322714
 C        -4.3001828314        3.6743375124       -4.3928456362
 C        -3.7848231963        2.1904226857       -4.6807426150
 C        -2.7113277085        1.7348594680       -3.6373530484
 O        -1.8458807780        2.4964715760       -3.3945379006
 C        -2.8270751936        0.1361496378       -2.9532542286
 C        -4.1240299257       -0.1059721922       -2.1309635690
 O        -4.8998205116       -0.9307274967       -2.5856664301
 C        -4.4814864445        0.6544116677       -0.8649850014
 C        -2.6839598620       -0.8455286054       -4.1712112765
 C        -1.7588364258        0.0568604230       -1.9169256675
 C        -4.0784892740        5.9726010602       -2.0046032313
 C        -5.5126456586        4.3019129168       -0.6457646532
 C       -11.6285088281        3.2403407142       -4.2097280411
 C       -12.3908335555        5.7672363523       -4.2281308089
 C       -17.3892136550        6.5178088793        0.2965157628
 C       -15.4428508453        7.2406826602        1.6846202756
 C       -13.8056825491        0.9234518264        1.0884679338
 C       -14.4482752657        0.2806636630        3.3954212261
 C       -10.1784056098        4.8546686777        2.8138117621
 C        -7.7698739636        4.2219737377        2.9011161497
 H        -9.6402252304        3.6391006448        6.6180039192
 H       -10.8572826073        3.4581684917        5.5350221430
 H        -9.9874511076        4.8192981615        5.4487776734
 H        -9.5021837958        0.9838900771        3.6751251835
 H        -8.8320353559        0.5765520468        2.1656947112
 H       -11.2379306282       -0.5202663143        2.7866516630
 H       -11.0766649538        0.4686486502        1.2533285463
 H       -14.9985442442        3.3092458110        4.5268854826
 H       -16.3746312236        2.5721954331        3.5424616093
 H       -14.9496538183        5.3699046464        3.1868707212
 H       -16.7155205016        5.0747618761        3.8158487051
 H       -16.6430161084        4.9990273226       -1.7121374869
 H       -15.5375686295        3.6664364856       -1.1754166548
 H       -14.5014352036        5.9927511565       -2.9989592290
 H       -15.2247702475        4.4563520442       -3.4483576558
 H        -9.2173341842        6.1154817633       -3.4764372317
 H        -9.0536649186        4.2925430533       -3.8587165982
 H        -7.7635626021        3.5816713983       -1.9895918819
 H        -8.2713868120        5.0724290204       -1.0333543701
 H        -3.4869767453        4.4742837372       -4.4412707254
 H        -5.1189512771        4.0436300629       -5.0891562856
 H        -3.3248179305        2.0697029090       -5.7994552661
 H        -4.5376589293        1.4480137213       -4.5893454182
 H        -4.3120852971        1.7154272785       -0.9746222422
 H        -4.0698183878        0.3075595721        0.1290546005
 H        -5.5082080062        0.5196839801       -0.5580795702
 H        -3.6719518197       -1.1206580794       -4.5238408382
 H        -2.1487928770       -1.7126185272       -3.9095043153
 H        -2.0884995890       -0.3902471265       -5.0214826834
 H        -1.0615150212       -0.7714646673       -2.0485711659
 H        -2.2638531766       -0.0612691796       -1.0214835136
 H        -1.2506951347        0.9755090843       -1.9082194839
 H        -3.0995644148        5.4741835399       -2.1639134791
 H        -4.1515428923        6.4204905391       -0.9998912237
 H        -4.1075598406        6.8475571609       -2.7916337597
 H        -5.9968685589        5.0844811756       -0.0773365968
 H        -4.7547739120        3.8812021721       -0.0807590492
 H        -6.1639776444        3.3968268793       -0.7052264789
 H       -11.2214799310        3.3808896249       -5.2563723609
 H       -12.4876093908        2.5325965948       -4.3127942247
 H       -10.8885884210        2.7078696807       -3.6326289904
 H       -11.5781899403        6.2483965086       -4.5277145426
 H       -13.1345398882        6.4305125642       -3.9701294282
 H       -12.8250520415        5.3295267129       -5.1733624835
 H       -17.9633525665        6.6178394181        1.1462353188
 H       -17.9286332059        5.8402530549       -0.3244105286
 H       -17.3029566447        7.5064841689       -0.1408136586
 H       -15.7637539378        8.2231325663        1.4604124909
 H       -14.3394649896        7.3361772979        1.6000614645
 H       -15.8274871331        7.1996920854        2.7699835942
 H       -13.2858119101        0.0070451805        0.9289873388
 H       -13.2879159426        1.4073729020        0.2617240941
 H       -14.7752743297        0.8275736070        0.8265912306
 H       -14.3265899467       -0.7147956213        3.0321991173
 H       -15.4949858883        0.3209127462        3.1306199683
 H       -14.2492940968        0.4756050306        4.3967111353
 H       -10.0498189118        5.1228553107        1.8776859659
 H        -9.9318873997        5.7652727901        3.4112528438
 H       -11.2159640540        4.5319116722        2.9387866944
 H        -7.5162938326        4.3031902989        1.8319360677
 H        -7.0654856920        3.4469392904        3.2493194611
 H        -7.2570559089        4.9733592381        3.4320221236
 Na      -11.8698742356        4.1348574283        0.2709267663
