117

 C       -12.3319891641       -1.7948235409       -8.4770383090
 C       -11.6336412444       -1.7208249468       -7.0476263322
 O       -11.5641544149       -2.5558422058       -6.1904667502
 C       -10.7076727036       -0.4487082953       -7.0419232505
 C       -10.8289468090        0.1606481700       -5.5612890094
 O       -11.2900093363        1.2383969504       -5.3761643945
 C       -10.4364979332       -0.7636372116       -4.3425576925
 C       -10.7551213987       -0.1119806994       -2.9744857065
 C       -10.8108145758       -1.0895153563       -1.7658253454
 O       -11.5359213939       -2.0612942779       -1.8536700339
 C        -9.9905377674       -0.8569173283       -0.4855438687
 C       -10.8475627319        0.0881919862        0.3942130415
 O       -11.0338970078        1.1680726093       -0.1151055530
 C       -11.4412329534       -0.2473057414        1.8319939757
 C       -12.6686938487        0.7107224091        2.1591937361
 C       -12.3167734352        2.1918180930        1.9316803371
 O       -11.1979923301        2.5369517449        2.2204248378
 C       -13.4062036275        3.2309230176        1.4869394412
 C       -13.1570399550        4.6046444927        2.2170948071
 O       -12.1905636677        4.7556523649        2.9531209021
 C       -14.1369992464        5.7619547666        2.0539367251
 C       -13.3836582548        7.0596220810        2.3286041121
 C       -12.2372016124        7.2456924075        1.3539151215
 O       -12.0551249839        6.4924212893        0.3774528932
 C       -11.1814253939        8.3308669933        1.7206122650
 C        -9.7337953849        7.6843082782        1.2419623815
 O        -9.0987317524        6.7949639388        1.8313129089
 C        -9.1053088679        8.1745998689       -0.0416110643
 C        -7.6346488531        7.8115374595       -0.1934807787
 C        -6.9154021704        8.6269469777        0.9481516672
 O        -7.5002350503        9.3624439576        1.7092002043
 C        -5.4073650113        8.3849117375        1.3311933909
 C        -5.4324733850        6.9092879042        1.8423997941
 O        -5.0879301785        5.9862355540        1.0891166535
 C        -5.9761984948        6.7186763092        3.2664916726
 C        -5.7165445022        5.2158486265        3.7073721354
 C        -6.9831122335        4.4233672776        3.2343189093
 O        -8.0863322576        4.7184059417        3.6860680539
 C        -6.8205072679        3.2131686073        2.1498569082
 C        -7.3439342662        3.9172246670        0.7113505135
 O        -8.2693703210        4.7359552656        0.7467810449
 C        -6.6901646396        3.4432855159       -0.5417043092
 C        -5.3285904806        2.7133964505        1.9144335852
 C        -7.6078842762        1.9254912524        2.5898092508
 C        -4.5317487286        8.4330138719        0.0072595350
 C        -4.9012264243        9.3213219550        2.3974498288
 C       -11.6028716991        9.5297552703        0.8883947143
 C       -10.9697525177        8.7573470358        3.2142291985
 C       -13.5010270082        3.4605400324       -0.0469703615
 C       -14.8097364399        2.7204854911        2.0054470237
 C        -9.7626686258       -2.1892347486        0.1609128612
 C        -8.5741820456       -0.2116086152       -0.9070344882
 C        -9.2167336584       -0.8933875755       -7.2275594161
 C       -11.1516702128        0.6860662299       -8.0919064198
 H       -12.7134474376       -2.7779855757       -8.4680102007
 H       -11.4937033778       -1.7281910365       -9.2490672647
 H       -12.9922924440       -0.9589322190       -8.5385232453
 H        -9.4089395379       -0.8675195794       -4.2988403946
 H       -10.9295891190       -1.7396351324       -4.4531550012
 H       -11.7243478723        0.3212843809       -3.0379293179
 H       -10.2510164924        0.8798081571       -2.7799743804
 H       -10.6079479114        0.0922663691        2.4297345074
 H       -11.6116758677       -1.2327900773        2.2119656189
 H       -13.0717235560        0.4815058899        3.1104051553
 H       -13.6117967719        0.5066058160        1.5528644170
 H       -14.9566504669        5.6093669676        2.8510644195
 H       -14.5950970529        5.6863579578        1.1186004647
 H       -12.8529017120        7.1944200317        3.2798061048
 H       -14.2147905715        7.7985425464        2.2263329804
 H        -9.2653295358        9.2302262579       -0.2072248038
 H        -9.6781170444        7.6922114029       -0.7919623107
 H        -7.3598337147        8.1062419418       -1.1908467913
 H        -7.3886997592        6.8008115739        0.0524215114
 H        -7.1204406110        6.7021717816        3.1757528491
 H        -5.7440964132        7.5178751467        4.0237475434
 H        -5.5976565513        4.8467938027        4.7661044029
 H        -4.8193538987        4.9029224416        3.1246413325
 H        -6.2527189090        2.4289580199       -0.5581384420
 H        -5.8249820180        3.9652997322       -0.8604293501
 H        -7.2882554075        3.5908870772       -1.4059176609
 H        -4.8327399045        2.5162995152        2.8428005926
 H        -4.7802179199        3.5502210064        1.4115939549
 H        -5.2102622948        1.7794489925        1.3627638073
 H        -8.6074096927        2.0961431086        3.0001670056
 H        -7.0263368166        1.5278489170        3.3814410713
 H        -7.8312961779        1.2067621309        1.6882315007
 H        -4.6470929016        9.4573375154       -0.3887796986
 H        -5.0507643787        7.7046410429       -0.6855310287
 H        -3.5562644449        8.0465855332        0.0529605514
 H        -3.8708155452        8.8531847238        2.6320287270
 H        -5.5019458228        9.4074860116        3.3331249907
 H        -4.7674587261       10.3571469016        1.9293943024
 H       -12.6515474171        9.7954323351        1.0585976335
 H       -11.5521051232        9.4049651556       -0.2079421368
 H       -11.0163547616       10.3749248915        1.1856606683
 H       -10.3785955548        8.0604668540        3.8209059670
 H       -11.8623946490        8.9905704742        3.6765650002
 H       -10.3564155869        9.6046508380        3.1627564177
 H       -12.4700854080        3.5469052402       -0.3616198500
 H       -14.1220399339        4.2851282400       -0.2496803192
 H       -13.9057279166        2.5368640039       -0.5216322830
 H       -14.8900821165        1.7301869186        1.6656190103
 H       -15.6687066802        3.3461718674        1.8229867780
 H       -14.6364027721        2.7377224567        3.1029881844
 H        -9.0583912466       -2.8950294772       -0.3647237928
 H       -10.7084872508       -2.7204393382        0.3465727920
 H        -9.3572140342       -1.9814941524        1.2098501037
 H        -8.1943452397        0.3926359210       -0.0486495093
 H        -8.5375409461        0.5098657502       -1.7113142716
 H        -7.8604897805       -1.0185311801       -1.0582851671
 H        -8.9800817806       -1.5256888213       -6.4142244363
 H        -8.5363653009       -0.0114414018       -7.1881828197
 H        -9.0125565629       -1.4513071376       -8.1761649895
 H       -12.1934332268        0.9061537281       -7.9611157169
 H       -10.9137478918        0.3576173962       -9.1340264301
 H       -10.5037437717        1.5845566689       -7.9025588534
 Na      -10.0613601379        4.6742657399        2.3480343422
