117

 C       -10.0623215562        3.9892748209        5.6678209667
 C        -9.0832308131        3.3784224023        4.6368275655
 O        -8.3344741435        2.5018832425        5.0645288158
 C        -9.0752317723        3.6964821503        3.1819411266
 C        -9.6391934107        2.5639637068        2.1954811931
 O       -10.0351796266        2.7529161187        1.0758867112
 C        -9.6687540969        1.0471052561        2.7110093625
 C       -11.0046111005        0.3803512237        2.4811044555
 C       -12.1451205663        1.1817091706        3.2064874527
 O       -11.9084555960        1.9877284305        4.1058290215
 C       -13.5573855031        1.1763878453        2.6149314246
 C       -14.0522528477        2.7613137668        2.5402928531
 O       -13.4119907967        3.5757738101        1.9246387950
 C       -15.2326877279        3.1841639582        3.4288416013
 C       -15.4974046668        4.7316814112        3.1259952406
 C       -16.1719494432        4.9758504821        1.7605541063
 O       -16.8113163296        3.9936186090        1.3410625963
 C       -15.9830948550        6.2555574872        0.8195018053
 C       -15.1211287223        5.5973384217       -0.2778757375
 O       -13.9057240781        5.7986297430       -0.1738709329
 C       -15.4678946399        4.6663918250       -1.3952244211
 C       -14.5823188210        4.5245520169       -2.6476241219
 C       -13.1600782870        4.2176144604       -2.3798285457
 O       -12.8903601286        3.3840853695       -1.4930690402
 C       -11.9066725529        4.6530331245       -3.3987270735
 C       -10.6573863706        5.0103403855       -2.4995574315
 O       -10.7758687587        5.0976872745       -1.3197075925
 C        -9.3509339647        5.1805600340       -3.2318423784
 C        -8.1839391829        4.6475404603       -2.3734070895
 C        -6.8868302636        5.4738370747       -2.4498692654
 O        -6.9324180544        6.5720177620       -2.8942414951
 C        -5.4680646993        4.8102900410       -2.1429790124
 C        -5.3370621175        3.4495008559       -3.1400377224
 O        -6.0976188075        2.4995441548       -3.0313359408
 C        -4.1838785492        3.2375587032       -4.1900119813
 C        -3.8918754841        1.7445872253       -4.4333527755
 C        -2.7871546626        1.4088409212       -3.4672967110
 O        -1.8329173786        2.1736180365       -3.3595786052
 C        -2.9527018718        0.1201931879       -2.5796973376
 C        -4.3262622519       -0.0335022993       -1.9293333206
 O        -5.2605463032       -0.5764426818       -2.4661146834
 C        -4.4761874061        0.7352018254       -0.5457698255
 C        -2.8747322545       -1.0756595159       -3.5600086456
 C        -1.6576278983        0.0751983669       -1.7642038775
 C        -4.2944819510        5.8120323992       -2.4421586675
 C        -5.4152325497        4.1798107447       -0.7939327269
 C       -11.5597806095        3.4189569253       -4.2612324271
 C       -12.1568683818        5.8572403871       -4.3567419300
 C       -17.4458675822        6.7047095230        0.1625652774
 C       -15.3162101901        7.4381814782        1.5413725372
 C       -13.5652813435        0.6912202449        1.1908240836
 C       -14.6682192430        0.4420660820        3.4960686022
 C       -10.0765671861        4.9485593936        2.8582317437
 C        -7.6793818678        4.1209282360        2.6279150247
 H        -9.9422901367        3.6997588817        6.6526998756
 H       -11.1536816732        3.6854530564        5.4914271114
 H       -10.2234366269        5.1025557524        5.7367267516
 H        -9.3563108842        0.9308407565        3.8714987394
 H        -8.8163133565        0.6377463963        2.1191071419
 H       -10.9832447795       -0.7265871267        2.6422834270
 H       -11.1727152299        0.5318020353        1.4508321551
 H       -14.7524845148        3.2720650743        4.3966864580
 H       -16.0495115447        2.6164999486        3.6384350935
 H       -14.6060033708        5.2245668920        3.0768627167
 H       -16.0741680807        5.0740583733        3.9807550226
 H       -16.4272870265        5.0216345943       -1.7639484516
 H       -15.6117677188        3.7527483890       -0.8741016254
 H       -14.5689534113        5.4370724295       -3.2615853296
 H       -14.9391177465        3.7937336827       -3.3013753474
 H        -9.2731937316        6.1810309505       -3.4126671583
 H        -9.3408136867        4.6313207419       -4.1608877431
 H        -7.9636915437        3.6767516907       -2.7578278047
 H        -8.4721556814        4.4064117150       -1.3410340665
 H        -3.4065277128        3.7993011443       -3.7350606101
 H        -4.4840254216        3.7943271743       -5.0480935274
 H        -3.4984451926        1.6787908823       -5.3509263107
 H        -4.7603868491        1.0328315377       -4.4070495044
 H        -3.8120635369        1.5752030561       -0.3904431594
 H        -4.2700069655        0.1253828799        0.2926278208
 H        -5.4704752558        1.1572828282       -0.3061294059
 H        -3.6073665261       -0.9791460013       -4.3586557738
 H        -2.9921924868       -2.0943528805       -3.0827534205
 H        -1.8784262349       -1.1222797185       -3.9167042858
 H        -1.0467995147        0.4697182788       -2.5451949142
 H        -1.3564729969       -0.8931289138       -1.2446206309
 H        -1.7573922030        0.9081794002       -1.0207593865
 H        -3.6356601602        5.3762638235       -3.1071470845
 H        -3.7125309834        6.2023323850       -1.6483681845
 H        -4.6839582420        6.6258571117       -2.9094705649
 H        -5.7775289130        4.7961352061        0.0774300741
 H        -4.3432196258        3.9314499679       -0.4544411290
 H        -5.6906933732        3.1272173126       -0.7783716835
 H       -10.7823873652        3.6401443988       -5.0007080925
 H       -12.4231332621        3.0522830045       -4.8289833013
 H       -11.0983843619        2.6314469988       -3.6336630797
 H       -11.3170890705        5.9196533861       -5.1968460358
 H       -12.0065463073        6.7220890789       -3.5672398990
 H       -13.1002702150        6.1132152448       -4.7981900817
 H       -18.3515481057        6.4855319356        0.8723528975
 H       -17.7068003684        6.0428928335       -0.6591720594
 H       -17.3667883062        7.7202977349       -0.1811320221
 H       -14.7694286513        8.2353030635        0.9246416586
 H       -14.5874754460        6.9801396507        2.2000089664
 H       -15.9745940187        8.0524910255        2.0327855887
 H       -13.1183310319       -0.2255162664        0.7755305169
 H       -12.9821955381        1.3470298436        0.5684168882
 H       -14.6557991024        0.6735523833        0.7528113813
 H       -14.3195833915       -0.6077960215        3.7824763473
 H       -15.4452899599        0.1511521389        2.7701629126
 H       -14.9575154790        0.9569801581        4.4339390778
 H       -10.0091688603        5.2984872598        1.7377154386
 H        -9.8682978049        5.7735870405        3.4724211024
 H       -11.1068616093        4.5647821769        3.0983382966
 H        -7.6106966006        4.3351092194        1.6356767764
 H        -6.7949596196        3.5700467087        2.8495081086
 H        -7.3317848205        5.0188949871        3.1874972660
 Na      -12.1627778902        4.3121344401        0.3593143461
