117

 C       -10.1557480479        4.2668868952        5.5953028160
 C        -9.1612476513        3.5035467643        4.6811826676
 O        -8.3658465157        2.7830649313        5.1850236238
 C        -9.1593471799        3.7939390448        3.1743771355
 C        -9.8064424705        2.6393487819        2.2762027696
 O       -10.0649301415        2.9255241603        1.0970653803
 C        -9.6112066426        1.2223766392        2.7244662059
 C       -10.9932269413        0.4179882867        2.6322818407
 C       -12.1123035153        1.2509470325        3.1609228335
 O       -11.9592276779        2.1291722054        3.9884892631
 C       -13.5990145770        1.1271905187        2.5786267019
 C       -14.0389550647        2.7131944523        2.5059166216
 O       -13.2378540062        3.4745593000        1.9858816954
 C       -15.2099373564        3.3281179761        3.3367513139
 C       -15.3374507370        4.8654146577        2.9817392765
 C       -16.0389120319        4.9809928773        1.6824447051
 O       -16.6484885479        4.0562842838        1.2902827305
 C       -15.8086077206        6.2466989542        0.6474204160
 C       -14.7348863197        5.7697634412       -0.3655145727
 O       -13.7406000514        6.3348595476       -0.7164877797
 C       -15.2595689377        4.6420773794       -1.3152514526
 C       -14.4617471533        4.5916778803       -2.5809217173
 C       -12.9943212125        4.1791193895       -2.4593928378
 O       -12.7680542907        3.2955124652       -1.6926566590
 C       -11.9394034229        4.6497056376       -3.3360624185
 C       -10.6927024157        5.0379842159       -2.4754030412
 O       -10.7753024039        5.1825723266       -1.2378851851
 C        -9.3840412630        5.4308217843       -3.2226796328
 C        -8.2851033728        4.4931852076       -2.6280072970
 C        -6.9676720724        5.1714729082       -2.7951124566
 O        -7.0418814747        6.3824337974       -3.1588103069
 C        -5.6235764983        4.6959574800       -2.4567179710
 C        -5.5849346818        3.2991782335       -3.2334027197
 O        -6.4785839602        2.5562662285       -3.0066403138
 C        -4.3574697936        2.9584025498       -4.1938279317
 C        -4.0225272039        1.4852082843       -4.2752963978
 C        -2.7824343929        1.1604786167       -3.3273678359
 O        -1.8228595091        1.8804753450       -3.2264883554
 C        -2.9587874494       -0.1543569247       -2.3110709918
 C        -4.3032129399        0.1870430987       -1.6362031324
 O        -5.3338833027       -0.1324408557       -2.2983903868
 C        -4.3695526938        0.7528155264       -0.3126758368
 C        -2.9460110002       -1.4449902424       -3.2231235836
 C        -1.8179632313       -0.3002814767       -1.3056485605
 C        -4.5751707185        5.7561609187       -2.7547055689
 C        -5.4958123518        4.3193570666       -0.9387185252
 C       -11.7960623516        3.4357654479       -4.3193094173
 C       -12.2257260572        5.9423678554       -4.2019336674
 C       -17.3443284363        6.5152741481        0.2874555101
 C       -15.2827984188        7.4559515061        1.4374975508
 C       -13.8892842868        0.6371990848        1.1783133794
 C       -14.3181196678        0.2480025802        3.6095956860
 C        -9.9589636168        5.0653819732        2.9397477464
 C        -7.7501386997        3.9439673578        2.5607506877
 H       -10.2295407274        3.7246901554        6.6942201085
 H       -11.1832387660        4.3109418241        5.4869357268
 H        -9.9021723723        5.2631294569        5.7690539003
 H        -9.2300638227        1.1579254012        3.7027489056
 H        -8.9493699248        0.7219241270        2.0690047419
 H       -10.7693090518       -0.3926087244        3.2820052475
 H       -11.2435275699       -0.0714486875        1.6403603385
 H       -15.0194960713        3.3616736585        4.4304808587
 H       -16.2513717776        2.7110095924        3.2520609859
 H       -14.2475128222        5.2625309515        2.7929986165
 H       -15.8188569215        5.5008173853        3.7370289817
 H       -16.2571755679        5.0075530523       -1.5974815736
 H       -15.3490290833        3.6328886169       -0.7053583972
 H       -14.6920225111        5.4412088917       -3.2745196723
 H       -14.8154029525        3.6464646522       -3.2198501112
 H        -8.8835207906        6.4925026996       -3.0511437932
 H        -9.5050227160        5.1626266708       -4.3121874134
 H        -8.4092747734        3.3997686191       -2.9392012065
 H        -8.4002889443        4.3189809661       -1.5478694706
 H        -3.6404322941        3.7032787259       -3.8371395987
 H        -4.7379897511        3.2868565197       -5.1763537249
 H        -3.7877062329        1.3360578647       -5.4300928392
 H        -4.8610159239        0.8364591839       -4.1036617702
 H        -3.6024144721        1.5205441676       -0.0855920631
 H        -4.1644429285       -0.0173242829        0.5021066000
 H        -5.3069755680        1.2386448573       -0.0811004144
 H        -3.5047745162       -1.1857628666       -4.1267388536
 H        -3.3343759803       -2.3541635510       -2.8970635238
 H        -1.8721485159       -1.6707103748       -3.4232454589
 H        -1.1206768805        0.5637253425       -1.4573864622
 H        -1.3896882844       -1.2257185905       -1.5335070442
 H        -2.1932223804       -0.4477499318       -0.2976405782
 H        -3.6000052443        5.2795364013       -3.1667502757
 H        -4.0707619977        6.2017517139       -1.8445284547
 H        -4.8710818891        6.7000627206       -3.3301798139
 H        -5.1071727896        5.0686463258       -0.3394632902
 H        -4.8683086556        3.5226519191       -0.7241785413
 H        -6.3722564780        3.8602565878       -0.5771079676
 H       -10.8164267269        3.4133444920       -4.7198320030
 H       -12.5400009331        3.4877524957       -5.0626110039
 H       -11.8211230061        2.4978275990       -3.7702493652
 H       -11.9956696462        5.6498110083       -5.1678347593
 H       -11.8317881831        6.8745278815       -3.9574443154
 H       -13.3200332922        6.0096002298       -4.2886057956
 H       -17.8026250866        6.9807082245        1.0855955135
 H       -17.8956799697        5.5513913469        0.2234903868
 H       -17.4106091627        7.1175257828       -0.6563773977
 H       -14.4846509054        7.8008235881        0.8829583510
 H       -14.8713034344        7.1654401118        2.4137923023
 H       -15.8353659910        8.4482007364        1.5056482965
 H       -14.1885777052       -0.3775402202        1.0830432086
 H       -13.0931696445        0.5698278747        0.4203257221
 H       -14.7251286529        1.0853973469        0.7952390270
 H       -14.1605396132       -0.8168281422        3.4203229972
 H       -15.4158698179        0.4491807334        3.5042203538
 H       -13.9236569973        0.4343636281        4.6343865052
 H       -10.0763983478        5.3364101391        1.9179515202
 H        -9.3694227397        5.8989798123        3.4456901204
 H       -10.8562007533        5.0008585341        3.4111512898
 H        -7.5225464213        4.1917669054        1.3939542473
 H        -7.0950713622        3.0341216637        2.7369291601
 H        -7.0853410766        4.5894216835        3.1176006430
 Na      -11.7649637482        4.2747376663        0.4381827140
