117

 C       -10.1407949963        4.3454560963        5.6708386563
 C        -9.2014244803        3.6203583623        4.7116457942
 O        -8.3360335212        2.8522533920        5.1202341242
 C        -9.1708248422        3.8836159381        3.0893668732
 C        -9.7801299749        2.7308914412        2.1929991255
 O       -10.3709251994        2.8701736747        1.1464257999
 C        -9.5989561311        1.2884530409        2.8454201636
 C       -10.9511591511        0.3998320326        2.6213733094
 C       -12.0644855119        1.2675434914        3.1041739351
 O       -11.9067744230        2.1601529924        3.9527755471
 C       -13.6783597580        1.1884746408        2.7134709566
 C       -13.9278163093        2.7391844547        2.5911157691
 O       -13.2798445575        3.4511017688        1.8687078423
 C       -15.0432946106        3.3706144597        3.3514939097
 C       -15.2463717478        4.8063332364        3.0292249028
 C       -15.8417635998        4.9305293986        1.6128423357
 O       -16.6060357068        4.0859754406        1.1543040806
 C       -15.7648115377        6.2513145033        0.7159825296
 C       -14.8123475011        5.9399694095       -0.6063766223
 O       -13.7292549543        6.4816202821       -0.7415265586
 C       -15.1861452123        4.6222199526       -1.3117570397
 C       -14.5900630018        4.5244326875       -2.6930838045
 C       -13.1130297417        4.0954730800       -2.3537401276
 O       -12.8817265713        3.2664123246       -1.4518738905
 C       -12.0290838038        4.6509359386       -3.4208323559
 C       -10.8484501146        5.0768186388       -2.5506316040
 O       -10.8246742844        5.2154014797       -1.3683365676
 C        -9.5188827834        5.3447041908       -3.2437056817
 C        -8.3756830113        4.5482690611       -2.6904229727
 C        -6.9809728555        5.3394467150       -2.8961922821
 O        -7.0742475638        6.4703390446       -3.3900398766
 C        -5.5338333176        4.6125072686       -2.5237239238
 C        -5.4999203571        3.1732978104       -3.2153520346
 O        -6.4780800494        2.5268707708       -3.0819973141
 C        -4.3712281611        2.6594943994       -4.2917683314
 C        -3.8983049135        1.2120687937       -4.1679116642
 C        -2.8189136354        1.0275805100       -3.1592723855
 O        -1.8201167169        1.7308480864       -3.1357089856
 C        -2.9803610005       -0.2482097851       -2.2555842619
 C        -4.4376605724        0.0715972216       -1.4911676022
 O        -5.4681185695        0.0104896968       -2.1551509456
 C        -4.3334640260        0.7509447165       -0.1055044659
 C        -3.1053182614       -1.4522604707       -3.0813873006
 C        -1.7941875689       -0.3971278819       -1.2041087541
 C        -4.4051201296        5.6589125840       -2.9300129185
 C        -5.6970382060        4.3712268761       -1.0177894476
 C       -11.5818515196        3.5073927422       -4.3382637844
 C       -12.3744391770        6.0655158703       -4.1283521551
 C       -17.1797696783        6.4801667807        0.1063709051
 C       -15.1365182254        7.5043083153        1.5145252871
 C       -13.9491277380        0.6684228157        1.1658837727
 C       -14.2780817359        0.2825201984        3.7624892543
 C        -9.9734743623        5.2854566269        2.7895025139
 C        -7.6240539512        3.8148690550        2.8417473833
 H       -10.1698771555        3.7881642828        6.5268766541
 H       -11.2139957638        4.2046157881        5.5074467381
 H       -10.0414528852        5.3699371921        5.9682894353
 H        -9.2837159081        1.3424388168        3.9491495416
 H        -8.8615971510        0.7625914149        2.4034979531
 H       -10.8112340338       -0.5505018014        3.2431769222
 H       -11.1103616758        0.0519418413        1.5772587995
 H       -15.0253546622        3.2857070221        4.4704921564
 H       -15.9886302080        2.8091146572        3.0726232912
 H       -14.2642186261        5.3940924594        3.1135912592
 H       -16.0700026445        5.3847060131        3.5655112445
 H       -16.1877214364        4.4459981251       -1.1897302491
 H       -14.5944860669        3.9599648328       -0.5611943103
 H       -14.4246804639        5.5187649738       -3.0289284999
 H       -15.0581761662        4.0093093634       -3.4544808795
 H        -9.1944633784        6.3897158288       -2.9853714906
 H        -9.6497161420        5.2005025903       -4.4058141854
 H        -8.3185926909        3.6162646931       -3.3643883948
 H        -8.5841889761        3.9962779060       -1.7522201129
 H        -3.5998655372        3.4190503922       -4.1166852983
 H        -4.8839668221        2.8508047069       -5.2949126631
 H        -3.3884519947        1.1485506083       -5.1074685372
 H        -4.6189023070        0.3005334267       -4.2292266201
 H        -3.5580112273        1.5631517594       -0.1006518492
 H        -4.0358136639        0.1904239863        0.7480700468
 H        -5.2642988540        1.2943705465        0.1015187261
 H        -3.9693122066       -1.4399753282       -3.7434838485
 H        -3.3805978531       -2.2621448793       -2.3986998090
 H        -2.1883379965       -1.8091374823       -3.4892770218
 H        -1.4031705623        0.5288086170       -0.9933088729
 H        -1.0815420478       -0.9776749281       -1.7194975872
 H        -2.1121630164       -1.0369963042       -0.4020243227
 H        -3.3507313862        5.2560199277       -3.0264065990
 H        -4.1645910726        6.5299742729       -2.2278192807
 H        -4.7448943562        6.1965010559       -3.8303380714
 H        -5.3648362895        5.2322332055       -0.5266344076
 H        -5.1032097628        3.6247359412       -0.4648499580
 H        -6.6567387542        4.0890893726       -0.7981605455
 H       -10.6424332148        3.6368942841       -4.8350331585
 H       -12.4142832017        3.4101379266       -5.0154902557
 H       -11.4122830533        2.5244810984       -3.7963464178
 H       -11.8585115671        6.1828919471       -5.0744113471
 H       -12.1332735548        6.8302216787       -3.4277651493
 H       -13.3269542945        6.0685894957       -4.4086199647
 H       -17.7716257630        7.2507107270        0.6065908667
 H       -17.7582962771        5.6062063779        0.2050447375
 H       -17.0390398542        6.7139679387       -0.8918738911
 H       -14.2301097497        7.8960778034        0.9355040840
 H       -14.9445168016        7.4350641749        2.5861385371
 H       -15.7503785190        8.3624500777        1.3429025782
 H       -14.0633819430       -0.3372300703        0.9808034075
 H       -13.1843038738        0.8334002402        0.5059743487
 H       -14.9109908254        0.9946592863        0.7201079924
 H       -14.0785215425       -0.7262923429        3.4091286061
 H       -15.3110118833        0.5070835247        3.9041141115
 H       -13.7581842592        0.2852816792        4.7408955840
 H        -9.9171678856        5.6960839357        1.7098454908
 H        -9.5763780332        6.0067402402        3.4116998193
 H       -10.9736195245        5.1539878961        3.1110207869
 H        -7.5544906651        4.1250414144        1.8262531588
 H        -7.0572295280        2.9024264095        2.8368411840
 H        -6.9063817136        4.4558299481        3.3760932635
 Na      -11.6173305345        4.2281029553        0.3658770463
