117

 C       -10.2517515567        4.6164415144        5.3318908129
 C        -9.1760486369        3.7188195889        4.7054730091
 O        -8.6594788468        2.9136554213        5.4430605729
 C        -8.8711354588        3.9537517640        3.1160058807
 C        -9.5989534524        2.7177978612        2.4066050919
 O       -10.4253419410        2.9061125546        1.5422095267
 C        -9.5197858778        1.2998875974        2.8634783518
 C       -10.8763360367        0.5280202076        2.6708221322
 C       -12.0091490243        1.4341599936        3.2119665705
 O       -11.6979784238        2.1268341617        4.1657875936
 C       -13.4763571555        1.4114322488        2.7194162223
 C       -13.9306050990        2.8925184713        2.4986328277
 O       -13.5990737481        3.5432238943        1.5491602380
 C       -14.9013587883        3.5869497783        3.4698684867
 C       -15.2573432454        5.0261999530        3.0907727310
 C       -15.7869298701        5.0060916657        1.6240107539
 O       -16.4395817055        4.0538294972        1.2660893092
 C       -15.6466546933        6.3212957291        0.6632959334
 C       -14.9270190844        5.8941286779       -0.7285041206
 O       -13.8453700637        6.3557593749       -0.9095289106
 C       -15.3547136688        4.5805835201       -1.4408956366
 C       -14.6079176638        4.2641888668       -2.7166187020
 C       -13.0846390007        4.0468501780       -2.4364520719
 O       -12.6838589769        3.2816272080       -1.6267571451
 C       -12.1260356708        4.8589757508       -3.4138784230
 C       -10.7508107933        5.3174994608       -2.7039648530
 O       -10.7212314552        5.4161035994       -1.4977702273
 C        -9.3752405761        5.7155507381       -3.6202592033
 C        -8.2236381458        4.7232786045       -3.1980928421
 C        -6.8411876445        5.2201929656       -3.4594180755
 O        -6.6232394673        6.3506664834       -3.9935575426
 C        -5.5406550974        4.5013157544       -2.9761698746
 C        -5.5155068968        2.9657875902       -3.4285221559
 O        -6.3818004094        2.2156715296       -3.2161373945
 C        -4.1384812220        2.4250830468       -4.1831884686
 C        -3.9947318471        0.9674826933       -3.9884440816
 C        -3.0146416276        0.7547455572       -2.8464536856
 O        -2.0935097694        1.5349576009       -2.8523374567
 C        -3.2513718261       -0.4742559640       -1.7366879611
 C        -4.5191093340        0.0621373384       -0.9201606604
 O        -5.6989894654       -0.0698267471       -1.3279021739
 C        -4.2869761688        0.6887333303        0.4037279784
 C        -3.7490399124       -1.6931449623       -2.5632009058
 C        -1.8842892412       -0.7184650028       -1.0164459290
 C        -4.3138343269        5.2943096762       -3.4303586702
 C        -5.7646414304        4.3608291466       -1.4691824550
 C       -11.7924003399        3.6825602983       -4.4043506287
 C       -12.6701553755        6.0424304898       -4.3354716187
 C       -17.0768663929        6.9201738720        0.2229292998
 C       -14.9110229753        7.4054735937        1.4939817344
 C       -13.5428655639        0.4248227825        1.5056886409
 C       -14.3570121100        0.7460455686        3.8933449947
 C        -9.7511589526        5.1914186221        2.6601032420
 C        -7.3680476984        3.9195119504        2.7543728353
 H       -10.2971068445        4.3948742850        6.3616165322
 H       -11.3105359929        4.2821615690        5.1632694606
 H       -10.1608740210        5.7191359671        5.3063731229
 H        -9.1613999041        1.1621353686        3.8986280396
 H        -8.8468618320        0.9336770756        2.2871704430
 H       -11.0184008266       -0.3217989182        3.2837550506
 H       -10.9647171392        0.2352239225        1.6218024509
 H       -14.5528220079        3.5891624338        4.5008771610
 H       -16.0106036011        3.1655240699        3.3745472063
 H       -14.4476335990        5.7950583498        3.2045676651
 H       -16.0783426625        5.4162954809        3.6442744998
 H       -16.4032642329        4.6084752789       -1.6730677036
 H       -15.0828592644        3.7678171543       -0.5593616648
 H       -14.6736643514        5.1266830851       -3.5006038651
 H       -15.1424542250        3.3299397733       -3.1977031152
 H        -9.2223114153        6.7756477319       -3.3603599842
 H        -9.7621607344        5.7715691546       -4.6711380391
 H        -8.4500931092        3.6635657151       -3.4197458231
 H        -8.2508264231        4.5870485930       -2.1565148864
 H        -3.3169941993        2.9764031750       -3.8090626612
 H        -4.2949462085        2.7273792548       -5.1892157730
 H        -3.4812594841        0.5672849425       -4.9142649669
 H        -4.8736955825        0.2844118798       -3.9044342743
 H        -3.5680809430        1.5261452788        0.4302576319
 H        -3.7410075507        0.0087177042        1.0624956757
 H        -5.1924863329        1.0532081646        0.8647790990
 H        -4.8336613596       -1.8976199354       -2.3830529341
 H        -3.2648260884       -2.6335060435       -2.4635311243
 H        -3.6979247187       -1.3667000479       -3.6378740272
 H        -1.9278293536       -0.2651306022        0.0123306204
 H        -1.0680292074       -0.2306266634       -1.5657858081
 H        -1.7573451573       -1.8428797076       -1.1072984670
 H        -3.3586754745        4.9739473836       -2.9781461561
 H        -4.3495546299        6.3700860645       -3.1661838634
 H        -4.2603933285        5.2065515048       -4.4958217639
 H        -6.2315830685        5.1895949414       -0.9058342734
 H        -4.8057485871        4.2998287031       -0.8926057621
 H        -6.3113971461        3.4424849530       -1.3371789104
 H       -11.5362067043        4.0371953518       -5.3642138280
 H       -12.5178085090        2.9075154432       -4.3796288898
 H       -10.8013279264        3.2927112091       -4.0518980547
 H       -11.7963021763        6.7562588718       -4.5666201709
 H       -13.4159739538        6.6243719327       -3.7414360111
 H       -12.9372712258        5.6958332834       -5.2758020571
 H       -17.5047584650        7.2095907675        1.1980157409
 H       -17.7437002335        6.2644518315       -0.4253591644
 H       -16.8854730270        7.8839038045       -0.3568023682
 H       -14.1353182995        6.9872852437        2.0757514917
 H       -15.7170205254        7.7510980456        2.1715451499
 H       -14.4763854877        8.3399572465        1.0818293791
 H       -12.8558588934       -0.4353130647        1.4794314496
 H       -13.3027763679        0.9230033586        0.5430116958
 H       -14.4586599167       -0.1130759770        1.1942645594
 H       -13.7823156679       -0.0788506955        4.2781756707
 H       -15.3375748032        0.6383142229        3.4890883809
 H       -14.6302328084        1.3464497524        4.8094541307
 H        -9.7619612184        5.1263390219        1.5129180607
 H        -9.4357035984        6.1791599383        2.9551379539
 H       -10.7228036546        4.9981307290        2.8985069493
 H        -7.0802198135        3.6033407231        1.7095123023
 H        -6.6575968204        3.2621822481        3.3353942492
 H        -6.9114060738        4.9460352302        2.7294181769
 Na      -11.9582736182        4.2184196512        0.2069597468
