117

 C       -10.2052992828        4.8183523631        5.4060680290
 C        -9.3376398014        3.8357048603        4.6976522997
 O        -8.6658724223        3.0245293078        5.2442852155
 C        -9.0017299702        4.0408067373        3.1239244701
 C        -9.6850994510        2.8544644924        2.3378664633
 O       -10.3919410702        3.0228353594        1.3369953650
 C        -9.4867256166        1.4019176879        2.8289275333
 C       -10.8508715138        0.7761046143        2.9554556089
 C       -12.0111670285        1.6122456136        3.5878692131
 O       -11.8009558992        2.3263036053        4.5197541317
 C       -13.4496094355        1.3849449825        2.8001074444
 C       -13.9896104649        2.9151552188        2.4707611983
 O       -13.7637409369        3.3918487114        1.3527384918
 C       -14.8233083484        3.5778489616        3.4711029070
 C       -15.1885154467        5.0520449923        3.0733620904
 C       -15.9127435753        4.9949254840        1.6016050517
 O       -16.7298382910        4.1702996289        1.2113139284
 C       -15.4625916679        6.2527902547        0.7160844566
 C       -14.8829814443        5.6635515336       -0.5505966322
 O       -13.7133877711        5.9559887025       -0.8206286562
 C       -15.4876462333        4.5226275647       -1.4520299013
 C       -14.6057483043        4.3437336677       -2.7361537956
 C       -13.0729194541        4.1952088045       -2.6361763321
 O       -12.4864764208        3.4120383287       -1.8378692804
 C       -12.0006878268        4.8901920888       -3.5577468618
 C       -10.6364607426        5.3143273365       -2.7752287311
 O       -10.5130582544        5.3404988818       -1.5697633989
 C        -9.4027935655        5.6419249988       -3.7119596965
 C        -8.3071238064        4.6997168654       -3.3780986978
 C        -6.8120562737        5.2187814423       -3.7058784749
 O        -6.8157539173        6.0281426530       -4.5782490819
 C        -5.5482981660        4.5343460427       -3.1962396834
 C        -5.5943804540        2.9658873931       -3.7339624692
 O        -6.5878340883        2.2490445452       -3.4554108773
 C        -4.3398679774        2.3103383439       -4.3365326697
 C        -4.1962108561        0.8910839331       -3.7296862632
 C        -3.2529924539        0.5989113546       -2.4903945473
 O        -2.2618152853        1.3048152289       -2.3762452886
 C        -3.4866370007       -0.6068736331       -1.5634835334
 C        -4.5016107637       -0.0573077313       -0.5299258296
 O        -5.6761666526       -0.2136370688       -0.7676591683
 C        -4.0710708216        0.6860749612        0.6304314445
 C        -4.0121347805       -1.9001230954       -2.3552101287
 C        -2.1458555702       -0.9702176792       -0.8658542275
 C        -4.2936575249        5.3623925510       -3.5161226139
 C        -5.5375000835        4.4246655117       -1.6590559378
 C       -11.5705734685        3.7169642019       -4.5981723515
 C       -12.6227150542        6.2844855936       -4.2856948036
 C       -16.9854150913        6.7466733329        0.5589779689
 C       -14.5263723630        7.5284167410        1.0129583625
 C       -13.6026903147        0.6850636668        1.5156254165
 C       -14.2311861095        0.7689302312        4.0245562217
 C        -9.2610916568        5.3919658142        2.4145482803
 C        -7.4564403091        3.7357662958        2.9953190493
 H       -10.3645924557        4.6070770530        6.5706882864
 H       -11.1775394146        4.9432323943        5.1389768844
 H        -9.6770256279        5.7158450399        5.4937600525
 H        -9.0479517991        1.2496870609        3.8184573314
 H        -8.7491691220        0.7687938918        2.0833586561
 H       -10.9180135453       -0.1234075833        3.6575649311
 H       -11.2029116670        0.3939127967        1.9870361812
 H       -14.3616456019        3.6623050834        4.4742396224
 H       -15.7516026460        3.0811767561        3.4683312502
 H       -14.3589107502        5.7367718730        2.9457377185
 H       -15.8155077333        5.4778766238        3.9375688421
 H       -16.4957617053        4.7331792066       -1.8987551960
 H       -15.4678805431        3.7460215021       -0.8307610148
 H       -14.8141970077        5.0475624159       -3.4083922229
 H       -14.9059470059        3.4651228406       -3.2233579722
 H        -9.1398595139        6.7086257293       -3.4759476635
 H        -9.7728607419        5.7295892901       -4.7169086873
 H        -8.4168199550        3.7223644778       -3.8785305148
 H        -8.4377384171        4.2259448441       -2.3298247717
 H        -3.5096811793        3.0633727489       -4.1928359457
 H        -4.6557192132        2.3172677737       -5.4225814204
 H        -3.8187156239        0.1682402382       -4.4759352721
 H        -5.1419431743        0.4431708949       -3.5196844502
 H        -3.2300824081        1.3551312147        0.5194225590
 H        -3.6930245565        0.0125593751        1.4390479840
 H        -4.9391363469        1.2698534437        1.0157923618
 H        -5.0806447995       -1.8947392538       -2.4628249146
 H        -3.7849572882       -2.7756937306       -1.7114716017
 H        -3.6448136391       -2.0392089690       -3.3525445698
 H        -2.0661307918       -0.2485861032       -0.0740829142
 H        -1.3901679269       -0.6929795391       -1.5805441629
 H        -2.0638984042       -1.9596136485       -0.5220774119
 H        -3.4182613470        4.6588725369       -3.3060329894
 H        -4.0940977324        6.1707204597       -2.7889064977
 H        -4.1681134929        5.7695908266       -4.5827422884
 H        -5.4403296803        5.4179868775       -1.2151891454
 H        -4.6797548448        3.8674937287       -1.4296199862
 H        -6.4541768023        4.0581661154       -1.1719352776
 H       -10.7480675698        4.1191782550       -5.2046226459
 H       -12.4439508811        3.4477163578       -5.2038863139
 H       -11.2407819475        2.8521636540       -4.1036329610
 H       -12.1476024423        6.2612309657       -5.1905597567
 H       -12.3754375501        7.1634191508       -3.7721227199
 H       -13.7170428152        6.0893609825       -4.4311174067
 H       -17.5467486547        6.5126251587        1.4221102627
 H       -17.3255828462        6.2962753415       -0.3406056182
 H       -17.0355688327        7.8106535813        0.4454415255
 H       -13.5218938032        7.1032859397        1.0207647341
 H       -14.7406267776        8.2083625466        1.8347554929
 H       -14.6009754866        8.2255686558        0.1659558123
 H       -13.9523702794       -0.3191980650        1.5461152103
 H       -12.7854891288        0.7158306414        0.8151962938
 H       -14.2556547041        1.1122422917        0.8232528872
 H       -13.8156106185       -0.2094737890        4.2018120059
 H       -15.3062515793        0.9111047987        4.0944217057
 H       -14.0057956279        1.3351287482        4.8741159533
 H        -8.7622005413        5.5919492227        1.5508689281
 H        -8.8294464370        6.1229978658        3.2436539847
 H       -10.3547867961        5.5648369566        2.2624398256
 H        -7.1218211441        3.0625692390        2.1947706620
 H        -7.1645039789        3.1442481858        3.8336496492
 H        -6.7951073349        4.5325380464        2.9194507192
 Na      -11.8495207965        4.3419164006        0.0648687751
