117

 C       -10.1963414116        5.4501363662        4.9548201750
 C        -9.3156049052        4.3444299188        4.5989381553
 O        -8.7915540561        3.6213389203        5.4401105787
 C        -8.6661312392        4.1812462480        3.0495949941
 C        -9.5489746814        3.0477846311        2.6342178487
 O       -10.4555439141        3.3584666169        1.8420172546
 C        -9.4505227880        1.6796618807        3.1737817730
 C       -10.8145506523        0.8896014719        3.0765027525
 C       -12.0395613669        1.7423491418        3.4410645043
 O       -11.9572414913        2.7374052477        4.1678389130
 C       -13.5237339982        1.4270871022        2.8305459891
 C       -13.8458992771        2.9327674380        2.5206441481
 O       -13.3533042522        3.4540358497        1.5576763583
 C       -14.8458942775        3.7354233220        3.4937663204
 C       -15.0928641246        5.1733639803        2.9368075079
 C       -15.7283419072        5.2995153515        1.5425534917
 O       -16.4965714495        4.4001815612        1.2842103567
 C       -15.3105635682        6.4300540975        0.4851736497
 C       -14.3702912454        5.6388679219       -0.5092912462
 O       -13.2366522903        5.9184968454       -0.7513961191
 C       -14.7849778953        4.2998615567       -1.1972325339
 C       -14.5142214478        4.6226219813       -2.7301998416
 C       -13.0098409111        4.2157363389       -2.8465604270
 O       -12.6466934713        3.2426693110       -2.2242493681
 C       -12.0085911386        5.0606123866       -3.6841172345
 C       -10.5905210531        5.2530987711       -2.8635579469
 O       -10.4844624336        4.8267986457       -1.7345846983
 C        -9.3632232382        5.5368839749       -3.7331907207
 C        -8.1968222207        4.6463407635       -3.5136707492
 C        -6.9638921447        4.9810808566       -4.3649352454
 O        -7.0984211526        5.5523194105       -5.4594094420
 C        -5.5823012810        4.3974357229       -3.8971021104
 C        -5.7407805406        2.7141466856       -3.9248985485
 O        -6.7364076566        2.1735845839       -4.1393359697
 C        -4.3853550796        1.8611087129       -3.7493036953
 C        -4.4526431740        0.4383640735       -3.2295082209
 C        -3.7325572981        0.4116094401       -1.9061348835
 O        -2.9051003936        1.2142079757       -1.5293719238
 C        -3.9974451801       -0.9533793661       -1.0209774832
 C        -4.6669240770       -0.2994492746        0.2563629682
 O        -5.7778844081       -0.6673649764        0.6997897787
 C        -3.7691673532        0.6203608610        1.1104229903
 C        -4.8934588484       -2.0963274736       -1.5693581604
 C        -2.5083187808       -1.4905655942       -0.7943655180
 C        -4.3696333794        4.8558213750       -4.7548391910
 C        -5.5197047379        4.7465551876       -2.3732477587
 C       -11.7017898987        4.3408477567       -4.9482886950
 C       -12.5394418203        6.4474891959       -4.1864100080
 C       -16.7118285923        6.7045043804       -0.1095276791
 C       -14.5893334990        7.6443979820        1.0017636731
 C       -13.7700068205        0.6588430384        1.4643092045
 C       -14.3307608886        0.8757084133        4.0756262796
 C        -8.7166513108        5.4509941030        2.1449875080
 C        -7.1562939823        3.7076466329        3.1788949157
 H       -10.3016456224        5.3993849287        5.9603869131
 H       -11.1914352173        5.6213033965        4.5226542507
 H        -9.5960688229        6.3746640022        4.8876861430
 H        -9.0863580454        1.6193182929        4.2812678515
 H        -8.7985023314        0.9926103701        2.6457011788
 H       -10.6920744532       -0.0006207354        3.6890859016
 H       -11.0090687328        0.6522205209        1.9466495021
 H       -14.4132640299        3.8354270463        4.3903251037
 H       -15.8501703689        3.3196689876        3.4526636713
 H       -14.1861706908        5.7893673833        2.7771892354
 H       -15.6953060061        5.7689374026        3.5093050868
 H       -15.7687257267        4.1379690054       -1.0637884556
 H       -14.1885060361        3.4110821102       -0.8441284148
 H       -14.7138951182        5.6495106256       -3.1958927007
 H       -14.9916928434        4.0152052236       -3.3920105943
 H        -9.0047622597        6.5392605635       -3.5349547471
 H        -9.5377969585        5.6531505658       -4.8043972626
 H        -8.3077221771        3.5257573741       -3.7596236750
 H        -7.8237157960        4.5422612128       -2.5457908794
 H        -3.6972748094        2.4623848675       -3.0452988809
 H        -3.8494024471        1.8199674718       -4.7343168784
 H        -3.9383580265       -0.3102370592       -3.8356971571
 H        -5.3826474534        0.0164860918       -2.9805471120
 H        -3.2218616792        1.4206453550        0.5662843394
 H        -3.0610864362        0.0540152914        1.7797029037
 H        -4.4225360344        0.9822795561        1.9042134955
 H        -5.9724199214       -1.8696443439       -1.5641994130
 H        -4.7318422166       -2.9042448152       -0.9187629992
 H        -4.6813412693       -2.4834431589       -2.6027591893
 H        -1.7124721768       -0.8041745594       -0.9782186198
 H        -2.4631583359       -2.2915437689       -1.4627428474
 H        -2.3431260548       -1.8383575911        0.2364140566
 H        -3.3380400758        4.5110486936       -4.4988225410
 H        -4.5061900599        5.9913185700       -4.8923142966
 H        -4.4547408534        4.4391720678       -5.7899683384
 H        -5.9481892241        5.6966225395       -2.2318759478
 H        -4.5445049346        4.5314490334       -1.9217499624
 H        -6.1945632052        4.1068082866       -1.9308161706
 H       -11.3575382619        4.9871969235       -5.6940531136
 H       -12.4702285268        3.7659178676       -5.3643764989
 H       -10.9577745122        3.6164006659       -4.5614080794
 H       -11.7387272187        7.2049984479       -4.0997622125
 H       -13.3556104962        6.7347422936       -3.5546391207
 H       -13.0271644713        6.3602888153       -5.0990609210
 H       -17.3285297430        7.0965919978        0.7229412520
 H       -17.1510839598        5.7842361755       -0.4595048508
 H       -16.6860055719        7.4493255522       -0.8882171404
 H       -13.7391207016        7.3494269852        1.5898748291
 H       -15.2039835340        8.1342415620        1.7975712499
 H       -14.3262245794        8.3717744929        0.1781543590
 H       -13.0218083843       -0.0484262573        1.1536760441
 H       -13.7984919352        1.3592982059        0.6232829740
 H       -14.7554424113        0.1350228177        1.3039050852
 H       -14.1264166075       -0.1635552236        4.2747462680
 H       -15.4102157040        0.8321038723        4.0371823937
 H       -13.9771971526        1.5027863795        4.9417830269
 H        -8.7246405897        4.9947379670        1.0428618354
 H        -7.7262609068        5.8183241874        2.1638371559
 H        -9.3312549799        6.2824758896        2.4807464460
 H        -6.6747773664        3.5215035901        2.2517506554
 H        -6.9021427083        2.8403747000        3.7249662208
 H        -6.5553897809        4.5031595450        3.6266096048
 Na      -11.8791745346        4.1390161987        0.0227139320
