117

 C       -10.1575952423        5.5731043307        4.8198739043
 C        -9.0738389878        4.6240149448        4.7022227948
 O        -8.7288973095        3.7129523353        5.4659765700
 C        -8.6103505644        4.2690468177        3.1113053759
 C        -9.6240189252        3.1209623307        2.6848255926
 O       -10.4696314874        3.3253167819        1.7619712538
 C        -9.5198484967        1.7286230063        3.3472338787
 C       -10.7417011559        0.8788114415        2.9319089471
 C       -11.9963545524        1.7422997820        3.2856639121
 O       -11.8858958628        2.5815215114        4.1914144155
 C       -13.4901415485        1.5948539228        2.8453807786
 C       -13.9509355426        2.9910194587        2.4764133985
 O       -13.5618313831        3.5467197098        1.4473687591
 C       -14.9539556489        3.8343318478        3.3751521183
 C       -14.9819738305        5.3289473793        2.9808638756
 C       -15.6301945970        5.3652345389        1.5257773277
 O       -16.4834834414        4.5130051413        1.1247417956
 C       -15.3255490454        6.4366846172        0.5992302133
 C       -14.4425848391        5.6113140653       -0.4443181613
 O       -13.3044888608        6.0632993654       -0.5711824546
 C       -14.8928842230        4.2673078792       -1.1374151082
 C       -14.6197985496        4.3657607723       -2.6772275807
 C       -12.9989146352        4.2294894809       -2.9157166213
 O       -12.4147696448        3.3145971536       -2.3749654434
 C       -11.9873848523        5.0712816859       -3.7484557592
 C       -10.5684967813        5.1130612727       -2.9499072972
 O       -10.3026802437        4.7783090080       -1.7662512729
 C        -9.4045168937        5.6777772667       -3.8120819883
 C        -8.2674018758        4.5308063973       -3.5206311588
 C        -6.9846261949        4.8308664153       -4.4897367965
 O        -7.1445461953        5.4669578749       -5.4568708184
 C        -5.5912385621        4.2412029831       -4.0689575854
 C        -5.6543534479        2.7166125094       -4.0265511840
 O        -6.7768473957        2.1771177938       -4.1631672168
 C        -4.3719789790        1.9044085893       -3.8411741109
 C        -4.5422097271        0.4729790904       -3.2208798167
 C        -3.8181421753        0.2422894172       -1.8249571226
 O        -3.0360483890        1.0824059520       -1.4587240526
 C        -4.0394360494       -0.9853927824       -0.8467903812
 C        -4.5886438953       -0.4253620184        0.6110490646
 O        -5.6989633996       -0.7193367001        0.8449523576
 C        -3.7778987917        0.4987966315        1.4442628274
 C        -5.0198262695       -1.9762176856       -1.3868924481
 C        -2.6749054067       -1.6073047595       -0.6322451802
 C        -4.5014272065        4.8007318382       -5.0559607984
 C        -5.3034111323        4.7466428553       -2.5556070048
 C       -11.6528683669        4.3040701423       -5.1198130831
 C       -12.5451961251        6.5615353821       -4.1172761364
 C       -16.7272306678        6.7575462273       -0.1587223113
 C       -14.6549259553        7.7775442882        1.1060105177
 C       -13.7122406028        0.7016424892        1.6892992828
 C       -14.1814008956        0.9214062722        4.0415404990
 C        -8.6400643198        5.3335927900        2.0657184165
 C        -7.1850585785        3.6588777944        3.3769587229
 H       -10.3874004120        5.8981650901        5.9675368260
 H       -10.9897547066        4.9993614139        4.4644359609
 H       -10.1022751978        6.5057656409        4.2970610088
 H        -9.5796990347        1.7586103929        4.3054373180
 H        -8.6128013987        1.1789333667        3.1194300398
 H       -10.7907544517        0.0155699326        3.6233191393
 H       -10.7740061766        0.5991098793        1.8821868623
 H       -14.5045510096        3.8199454156        4.4181177275
 H       -15.9696119812        3.6102037287        3.2779506718
 H       -14.0981779008        5.8121896866        2.8504016329
 H       -15.5784015378        5.9601568360        3.5999461671
 H       -16.0265970440        4.1141882707       -0.9678802095
 H       -14.3306031324        3.4544241619       -0.5650382149
 H       -14.9822352196        5.2874043100       -3.2870298971
 H       -15.0636995299        3.4874903477       -3.3386250068
 H        -9.1056766829        6.5390362383       -3.3260684886
 H        -9.4567325816        5.9738028777       -4.8318324607
 H        -8.5775444862        3.5760894425       -3.8783779972
 H        -7.9656095355        4.3425696295       -2.5305632866
 H        -3.6823296728        2.5058871712       -3.2207869196
 H        -3.8846180572        1.7904645684       -4.8131640856
 H        -4.1006549764       -0.2387885693       -3.8077462529
 H        -5.6528028382        0.2025186902       -2.9743740648
 H        -3.4135507665        1.3030511062        0.7626750612
 H        -2.9513848631        0.0472485290        1.9100231145
 H        -4.3649413302        0.7738311058        2.3078726746
 H        -6.0277305312       -1.8150403704       -1.0186676503
 H        -4.7164571155       -3.0010077213       -1.1199024768
 H        -5.0730974771       -1.9949923365       -2.4423486077
 H        -1.9500237110       -0.9793359977       -0.2709166633
 H        -2.3390954401       -2.1676952384       -1.5254533016
 H        -2.8452184315       -2.3349507216        0.1668993351
 H        -3.5598679860        4.3095932469       -5.0982268149
 H        -4.4390698574        5.8379798968       -4.8253086786
 H        -4.8228316076        4.7559051631       -6.1088762384
 H        -5.4304632917        5.8632773730       -2.4656754939
 H        -4.2978180254        4.2964093428       -2.3737380562
 H        -6.0361302566        4.2257927221       -1.8838491361
 H       -11.3443897095        5.0203132541       -5.8746069955
 H       -12.4999040144        3.7738897284       -5.5579792289
 H       -10.8859762872        3.5612127096       -4.8642919671
 H       -11.7228108326        7.2313393925       -4.4062173164
 H       -13.1017134110        6.9722972072       -3.2118204235
 H       -13.4669133484        6.4514200822       -4.8787122793
 H       -17.5301843265        6.7209637768        0.6447815451
 H       -17.0344678646        6.1194401200       -0.9206740622
 H       -16.6390250894        7.7403484081       -0.4706289394
 H       -13.5988073123        7.4864755020        1.4714587005
 H       -15.0541607698        8.1530021038        2.0465542234
 H       -14.5742133094        8.4428334620        0.3122210358
 H       -13.0511612692       -0.1688755919        1.6495990400
 H       -13.3271070256        1.2133180088        0.7913603949
 H       -14.7368803435        0.3895335052        1.3299732076
 H       -14.0889872958       -0.1668979024        3.8799889153
 H       -15.2533683922        0.9039504448        4.0256901608
 H       -13.7328748074        1.1806871709        4.9825254967
 H        -9.1828728426        4.8997889018        1.3045652896
 H        -7.6838735215        5.5145998419        1.5935846029
 H        -9.0288857307        6.3190344451        2.5455616507
 H        -6.7249570420        3.2148938297        2.5821786516
 H        -7.0065258259        3.0643933293        4.2604795906
 H        -6.6203391513        4.5451004736        3.6107171130
 Na      -11.8184574210        4.0198557516       -0.1537515455
