117

 C       -10.1692729848        5.6916213227        4.7447833605
 C        -9.1084276717        4.5607643596        4.6124366724
 O        -8.7320010496        4.0785624795        5.6255018177
 C        -8.5194997264        4.2375156711        3.1319427912
 C        -9.5644391793        3.0643523288        2.6144440115
 O       -10.3870898599        3.3117228630        1.7682115545
 C        -9.5867070853        1.7706876735        3.3817972096
 C       -10.8139073193        0.9808861279        2.8394193658
 C       -12.0194610914        1.8073157043        3.3912562519
 O       -11.7347440178        2.5499303707        4.2820254432
 C       -13.4191349833        1.6452728568        2.7919335462
 C       -14.0249935330        3.1063627948        2.4562362789
 O       -13.7525776543        3.6388655470        1.3849129957
 C       -14.9497497866        3.8239846108        3.3640047407
 C       -14.9716350203        5.2921293935        2.9913138603
 C       -15.7748417743        5.4076782494        1.5556295570
 O       -16.4530823555        4.4464983533        1.3200008235
 C       -15.3989763368        6.4944617439        0.4599479918
 C       -14.4094066384        5.7166796180       -0.4738017921
 O       -13.2001047045        6.0306834620       -0.4686755701
 C       -14.9473805740        4.5787407939       -1.2366057336
 C       -14.3618006307        4.2639542370       -2.5767171951
 C       -12.8804191845        4.1529692318       -2.8833991286
 O       -12.3594662978        3.1617575279       -2.3872775468
 C       -11.9449405847        5.0977975707       -3.7831739205
 C       -10.5671515359        5.2238557806       -3.0867142416
 O       -10.4830588239        4.7897506882       -1.9635499490
 C        -9.2860611086        5.6951849611       -3.7817839780
 C        -8.2722929719        4.4630344884       -3.6584063713
 C        -7.0604185700        4.7731239960       -4.5607456721
 O        -7.1686999868        5.4488243599       -5.5663599502
 C        -5.6545897222        4.2019441137       -4.1241481233
 C        -5.6214643228        2.6222722976       -4.1109841608
 O        -6.7434980797        2.0346112310       -4.1464959875
 C        -4.3368973154        1.8240487353       -3.8150673666
 C        -4.7310793418        0.4947953744       -3.1445136505
 C        -3.9169274441        0.2837533525       -1.6901655427
 O        -3.0830784186        1.1261551318       -1.4200632015
 C        -4.1438103550       -1.0218040704       -0.7142792573
 C        -4.6326539467       -0.4695981909        0.7196832704
 O        -5.7234950145       -0.7810553854        1.1049034917
 C        -3.6974191594        0.3684588807        1.6578509924
 C        -5.2155944592       -1.9263805685       -1.2955356260
 C        -2.7293054769       -1.7591970139       -0.4578171895
 C        -4.7099475526        4.7338497230       -5.2399866727
 C        -4.9864326723        4.7271369442       -2.8193422884
 C       -11.7423765720        4.3151220805       -5.1520670683
 C       -12.4818661277        6.5313607534       -3.9627821193
 C       -16.7640112723        7.0254307391       -0.2945390438
 C       -14.7494020522        7.7150527107        1.1168170899
 C       -13.5684569293        0.6305534052        1.6237786769
 C       -14.1832007578        0.9828114465        4.0844249467
 C        -8.5416098969        5.3783203538        2.0859254984
 C        -7.1409546884        3.5828434566        3.3415237961
 H       -10.0557454983        6.2097497247        5.6841250547
 H       -11.1894121289        5.1836176597        4.7267493916
 H       -10.2530679923        6.5165094608        3.9576289782
 H        -9.6902200170        1.8276685672        4.4966353466
 H        -8.6870007339        1.2457352573        3.2074437395
 H       -10.9712175112       -0.0452529073        3.2209267205
 H       -10.8158010253        1.0300865096        1.8238924030
 H       -14.4668237135        3.8736935065        4.4211953750
 H       -15.9828941250        3.4342720462        3.2629865229
 H       -14.0011081890        5.6784667352        2.7598593450
 H       -15.4263663979        5.9517779578        3.7870207635
 H       -16.1146921573        4.5370187512       -1.4456845813
 H       -14.7204686647        3.8449678374       -0.4300503435
 H       -14.7248315274        4.8580410387       -3.3892180769
 H       -14.7996573388        3.1991506481       -2.8994953757
 H        -8.8714958851        6.6007360596       -3.3092964632
 H        -9.3760525273        5.9354647852       -4.8315096509
 H        -8.7301320237        3.5849871138       -3.9987609758
 H        -7.7446412532        4.2328437121       -2.6991646467
 H        -3.6074822374        2.3490091261       -3.2372222495
 H        -3.8742335218        1.6022322889       -4.7606339963
 H        -4.3180981722       -0.4058368477       -3.7239487981
 H        -5.8672746895        0.4879524614       -2.9965206121
 H        -3.3435028509        1.2144125935        1.1338967184
 H        -2.8653919016       -0.2352605896        1.9314062081
 H        -4.1396939856        0.5093360921        2.6243236467
 H        -6.1665463289       -1.7771039633       -0.8211169799
 H        -4.9720519465       -3.0108475429       -1.2019583979
 H        -5.3268047518       -1.8342472098       -2.3462416375
 H        -2.1777529656       -1.2870334676        0.4121360489
 H        -2.0569807543       -1.8330648577       -1.3448941527
 H        -2.9484135915       -2.7730642808       -0.1392557294
 H        -3.9571086113        4.0096881562       -5.3579207159
 H        -4.2694975883        5.6343692775       -5.0333777455
 H        -5.1434748375        4.7189227154       -6.1959312448
 H        -4.8953390340        5.8750166380       -2.9492698017
 H        -4.0293392214        4.2046060186       -2.8720288412
 H        -5.5847675077        4.4278968324       -1.8435237755
 H       -11.3047000736        4.9859240510       -5.9535911787
 H       -12.7728771859        4.1262549017       -5.5754096046
 H       -11.2329462540        3.3983367277       -4.9633717582
 H       -11.7959592373        6.9662135130       -4.7553110309
 H       -12.3734950559        7.1365113823       -2.9901573410
 H       -13.5841225902        6.5631197613       -4.1895496657
 H       -17.6101508859        6.7240121777        0.2567002328
 H       -16.9739873744        6.5732790367       -1.2851230765
 H       -16.6666538692        8.1218711568       -0.3630681404
 H       -13.7217427536        7.4670944543        1.3823847076
 H       -15.1491573988        7.8245193264        2.1002081381
 H       -14.6782869772        8.5524505886        0.4278563692
 H       -13.3302172651       -0.4250043649        1.8640557927
 H       -12.8374303618        0.7002238973        0.7217463904
 H       -14.5334205701        0.6589141715        1.1707114425
 H       -14.1785550745       -0.1041622757        4.1595660334
 H       -15.2573497540        1.0224709917        3.8921975537
 H       -13.7930174997        1.3879444174        4.9936897048
 H        -9.3976248925        5.2154109025        1.5211905141
 H        -7.7022311614        5.4267647845        1.3502802862
 H        -8.5556191804        6.2380389027        2.7104774546
 H        -6.7872469325        2.8876640863        2.4516033949
 H        -7.0118487513        3.0922932058        4.3143754573
 H        -6.4154547845        4.3360110477        3.4506937821
 Na      -11.7324071687        3.9091197551       -0.2663769132
