117

 C       -10.2500617351        5.7865282861        4.4299498703
 C        -8.9965570976        4.9257007820        4.5090009126
 O        -8.5804562275        4.5623471401        5.6322955717
 C        -8.4461731533        4.2504242493        3.1819936601
 C        -9.4561267824        3.2418695329        2.5311583888
 O       -10.1606681873        3.4665625699        1.5052412486
 C        -9.4798042395        1.7211137778        2.9434182589
 C       -10.8606353564        1.1156158009        2.9816598185
 C       -12.0538300159        1.9105224031        3.4887428978
 O       -11.9708285430        2.6825821537        4.4557732368
 C       -13.5050773579        1.7023219441        2.9090437892
 C       -13.8856339933        3.0590149302        2.3816870502
 O       -13.6412716292        3.4139258844        1.2350487022
 C       -14.6158998836        3.9359327550        3.3293452716
 C       -15.0434629842        5.4046016340        2.8431101486
 C       -15.8582701662        5.4449777595        1.4970937682
 O       -16.8050384664        4.6985153430        1.1854786824
 C       -15.3751517941        6.4349503819        0.4261818245
 C       -14.3621429058        5.7644779373       -0.5283627238
 O       -13.1991398517        5.8694462112       -0.2135473457
 C       -14.9743958447        4.8363744555       -1.5698288247
 C       -14.3281975781        4.2781387183       -2.8994812162
 C       -12.7652715480        3.9774022521       -2.9093619718
 O       -12.2943358348        2.9818567505       -2.3909203760
 C       -11.9387628720        4.9286621015       -3.7076583038
 C       -10.4723357295        5.1024047148       -2.9132623339
 O       -10.2877326189        5.0830116894       -1.6955713741
 C        -9.2241909105        5.4375812793       -3.8856692081
 C        -8.1251710501        4.4091304419       -3.6968031602
 C        -6.9190652717        4.6281391819       -4.8281018863
 O        -7.0683001567        5.4112295266       -5.7251935910
 C        -5.5673887434        3.9469946713       -4.5356765959
 C        -5.6714608635        2.4846877236       -4.2011829972
 O        -6.7765366848        2.0100798977       -4.1908524853
 C        -4.4694529726        1.6349731475       -3.6349224803
 C        -4.9119102419        0.4409844787       -2.6633333457
 C        -4.1232869134        0.3492747504       -1.3077791354
 O        -3.2152890841        1.0760653601       -1.0228555544
 C        -4.3244542418       -0.9541093618       -0.4531999624
 C        -4.7017763916       -0.5739205397        0.9972452227
 O        -5.8110663492       -0.7789561036        1.3944944942
 C        -3.5616896855        0.1120842965        1.7929288588
 C        -5.5274951742       -1.7869226597       -1.0227794557
 C        -3.0187235328       -1.7844226209       -0.6352984781
 C        -4.6741282773        4.0982460662       -5.7808607769
 C        -4.9131876667        4.7838936204       -3.3118720987
 C       -12.0952951925        4.3977688158       -5.1552346568
 C       -12.4251271107        6.4156030374       -3.6308622171
 C       -16.5831476748        7.0439361070       -0.2464447716
 C       -14.7208119488        7.7241721675        1.2815176717
 C       -13.4205983177        0.8291792486        1.6781166490
 C       -14.4848808988        1.1603339771        3.9295475569
 C        -8.2304250805        5.4335450888        2.2328754718
 C        -7.1495173660        3.4710686548        3.4319316158
 H        -9.9728575308        6.9454251687        4.5779742501
 H       -11.0529457865        5.4806935943        5.0363461386
 H       -10.6379975864        5.6476045473        3.4886334117
 H        -9.0197337302        1.4567238316        3.8372106091
 H        -8.8988056555        1.0984266821        2.0992656444
 H       -11.1100801789        0.2477663748        3.5983143835
 H       -11.1122438286        0.8359803129        1.8708757074
 H       -13.9976782567        4.1764469441        4.1403722647
 H       -15.4708867903        3.3163908015        3.5935014545
 H       -14.1461670038        6.0864828214        2.7924800680
 H       -15.7341576028        5.8684362963        3.5734279029
 H       -15.7270551115        5.4019394254       -2.0117637128
 H       -15.5266633542        4.1443454965       -0.9744453462
 H       -14.5622473666        4.7749759396       -3.8092302930
 H       -14.7977872731        3.3412068631       -2.9715092605
 H        -8.8070451741        6.4680956446       -3.7163215491
 H        -9.7093187023        5.4851834382       -4.9312028320
 H        -8.5828906613        3.3589718773       -4.0426687072
 H        -7.7577036369        4.3458594043       -2.6565724268
 H        -3.8429430023        2.3470038160       -3.0079545972
 H        -3.7362100080        1.2370276583       -4.3702149212
 H        -4.6206802340       -0.4889705120       -3.0255494902
 H        -5.9815193905        0.5831761876       -2.5727435859
 H        -2.9813523595        0.7428952570        1.0408448646
 H        -2.8885128514       -0.6563591498        2.1906506426
 H        -3.8503036672        0.6452240756        2.7119796275
 H        -6.3854801032       -1.0799725290       -1.1151384514
 H        -5.9123162202       -2.6247266563       -0.4754653489
 H        -5.2927489658       -2.2390161737       -2.0102311790
 H        -2.2835053830       -1.6157373410        0.1009960134
 H        -2.5552112617       -1.4704653965       -1.6057506579
 H        -3.2055637393       -2.8965822463       -0.7825991721
 H        -3.6293847534        3.6799533680       -5.6097497052
 H        -4.4517700919        5.2121678221       -5.8520761220
 H        -5.0537521992        3.6268609222       -6.7481411519
 H        -4.9111688380        5.7825512988       -3.5625095779
 H        -3.8890202661        4.4469196888       -3.3244466829
 H        -5.3642527515        4.4770624204       -2.4596802082
 H       -11.3053452593        4.8063150805       -5.7356198567
 H       -12.9316732178        4.9235565723       -5.5229012777
 H       -12.1955407814        3.2865150028       -5.2764342989
 H       -12.4344534751        6.7763682073       -4.6011989452
 H       -11.8710702243        6.9970448557       -3.0077752782
 H       -13.4913174782        6.4302869755       -3.3190690250
 H       -17.5375134948        6.3707341933       -0.2513663363
 H       -16.4629158266        7.0935649013       -1.3233732615
 H       -16.6474909328        8.0587157003        0.1271232540
 H       -13.7652993343        7.7587204803        1.8548509953
 H       -15.4799489647        7.9915380671        2.0029197455
 H       -14.4775611390        8.3552037880        0.4736112656
 H       -13.0103360571       -0.1468791573        1.6712859637
 H       -12.7741294524        1.1739164187        0.9193706151
 H       -14.5073757105        0.7105022556        1.3331084481
 H       -14.1135167674        0.2654117081        4.4547163153
 H       -15.2556830690        0.7207692618        3.3436024978
 H       -14.6358936089        1.7785051340        4.8058827246
 H        -9.0932403316        6.1220737198        2.3145650773
 H        -8.2928768656        5.0593819456        1.2534469749
 H        -7.1595732378        5.8724859000        2.4674189373
 H        -6.8786459273        2.9125903133        2.6092592594
 H        -7.2954086979        2.8202190038        4.3442308317
 H        -6.2402047054        4.0749327145        3.7819767857
 Na      -11.7202544309        3.7610048705       -0.0782416887
