117

 C       -10.3883322058        5.6538237231        4.2048944577
 C        -9.0125657696        5.0729186134        4.3218035483
 O        -8.3977101258        4.9719077138        5.3307471341
 C        -8.3838205426        4.2278517742        3.1220447708
 C        -9.3797983406        3.4078941461        2.3351392387
 O        -9.9727625077        4.0022964013        1.4585652976
 C        -9.4935360375        1.9888035899        2.9358421200
 C       -10.8059815879        1.1635364312        3.1255170195
 C       -12.0930407476        1.9539480530        3.4903203263
 O       -12.0477972978        2.7246708317        4.3912040658
 C       -13.4949423319        1.5986272628        2.8269844197
 C       -14.0504902310        3.0264798161        2.2881192065
 O       -13.6681952837        3.5060948833        1.2481716860
 C       -14.6782367520        4.0279059064        3.2876039943
 C       -15.0737592606        5.4166279022        2.8051546647
 C       -15.8571677628        5.4677560234        1.4541188094
 O       -16.8468980147        4.8786060221        1.2557381147
 C       -15.2763527871        6.6329352359        0.2713596472
 C       -14.4151063048        5.7488603132       -0.6201726461
 O       -13.2436083142        5.5363706457       -0.3547719350
 C       -15.1501471063        4.9482890216       -1.7172414754
 C       -14.3630553275        4.1900423734       -2.7122227982
 C       -12.8713291304        4.0295235990       -2.5537915617
 O       -12.3838368922        3.0622365572       -2.0015050386
 C       -11.9701975670        5.0064528958       -3.4336179118
 C       -10.3141249431        4.9299434474       -3.0121110288
 O       -10.1242893855        4.9083875507       -1.8158237852
 C        -9.2105760842        5.2104591400       -3.9815631713
 C        -7.8742422025        4.3326269092       -3.7783344222
 C        -6.8645799737        4.5737506797       -4.9314545044
 O        -7.0360221917        5.3121223498       -5.9464130143
 C        -5.5012674190        3.7748976793       -4.8307217377
 C        -5.7333586545        2.2878000458       -4.0837121080
 O        -6.7501505870        1.6336284992       -4.1710179017
 C        -4.6630782461        1.7855986381       -3.1713378981
 C        -5.1266818403        0.5898493658       -2.4024905513
 C        -4.3226484279        0.3260621738       -1.1095119973
 O        -3.5732643699        1.1994729966       -0.6962727546
 C        -4.5724924161       -1.0063241965       -0.3670867013
 C        -4.6799663387       -0.5768578052        1.1361519096
 O        -5.7897090141       -0.6276178898        1.6953369153
 C        -3.4241636112       -0.1415789629        1.9724507073
 C        -5.8763292584       -1.8289508487       -0.7893141787
 C        -3.3916231123       -1.9214475623       -0.7094631437
 C        -4.7241027277        3.3918854114       -6.0888071298
 C        -4.6833309392        4.7358114457       -3.9459667436
 C       -11.9454916074        4.5902800224       -4.8913672041
 C       -12.2701009903        6.5006625110       -3.2564820761
 C       -16.5125007722        7.1671219255       -0.3875498578
 C       -14.4268744924        7.7944697946        0.7997068535
 C       -13.5250986040        0.7025023097        1.6742036017
 C       -14.4911414799        1.0810136948        3.8347942603
 C        -7.7542249063        5.3070669309        2.1484968369
 C        -7.0861587651        3.5692410548        3.7069536742
 H       -10.4859746188        6.2833459118        3.4311556006
 H       -10.6076744246        6.2571312572        5.1586630739
 H       -11.2129033356        4.8503780201        4.3308922941
 H        -9.0559751492        1.9639245756        4.0004519235
 H        -8.9314652511        1.3008200970        2.4826958371
 H       -10.7056844570        0.4440971489        3.9564751503
 H       -10.9067802831        0.5736371076        2.2729115343
 H       -14.0261278296        4.2570211276        4.1829601403
 H       -15.6687525517        3.5721880632        3.5559248147
 H       -14.2645286913        6.1806812918        2.7164261249
 H       -15.7788882580        5.7304318935        3.5318703614
 H       -15.9532090325        5.5193152761       -2.3052526727
 H       -15.8065843878        4.2557646223       -1.0227290616
 H       -14.3297038164        4.7590985274       -3.7532996311
 H       -14.9058784945        3.2296346072       -2.8912691878
 H        -9.0520373388        6.2616136377       -3.8446230541
 H        -9.6435463233        5.0640476681       -4.8977166412
 H        -8.1436204891        3.3469264977       -3.9401935931
 H        -7.3990453339        4.4964383048       -2.8088776518
 H        -4.1788357786        2.5633325895       -2.5887156979
 H        -3.8285164210        1.4044065134       -3.7844170536
 H        -5.2577478925       -0.4170228484       -3.0758098800
 H        -6.0924349681        0.9443764847       -2.0121669691
 H        -2.5625685610        0.2152383682        1.4543874030
 H        -3.2149898398       -1.0170810269        2.6576772098
 H        -3.8047936393        0.6470314984        2.6728272041
 H        -6.5065908787       -1.3816595491       -1.5228092847
 H        -6.5636165654       -2.0243240681        0.0514550280
 H        -5.6048176099       -2.8381414190       -1.0680790786
 H        -2.4763638835       -1.2792384828       -0.5949094870
 H        -3.3525768644       -2.2576293166       -1.6918239036
 H        -3.2956711051       -2.8035020364       -0.1414518130
 H        -3.6315507158        3.4390191837       -5.9559455658
 H        -4.8628808557        4.0227486624       -6.9769187632
 H        -5.0493721997        2.3976095501       -6.3340732592
 H        -4.6641092660        5.6877580117       -4.5300803888
 H        -3.5900560201        4.5819262784       -3.8547190098
 H        -5.1818916530        4.6383726747       -2.9493644330
 H       -11.2029947507        5.1967074313       -5.4143108679
 H       -12.9115976893        4.5398359629       -5.4207148452
 H       -11.5061138237        3.6209766990       -4.8810194527
 H       -12.0036090020        7.0778491841       -4.2572024831
 H       -11.6369494986        6.8415523605       -2.3339468733
 H       -13.3192464566        6.8056381752       -3.2116129417
 H       -16.7552642011        6.6114392193       -1.1706121866
 H       -16.4986390899        8.1876513373       -0.7780602184
 H       -17.2840286399        7.1808724503        0.3596169028
 H       -13.3937149673        7.6170824621        0.8440363704
 H       -14.7333210006        7.9104108905        1.8384400170
 H       -14.4418223821        8.6768231075        0.1095618904
 H       -12.9635140073       -0.2396752231        1.8624589820
 H       -12.8415595347        0.9313514762        0.8216316657
 H       -14.5034213153        0.3801313427        1.4806664796
 H       -14.4022381782        0.0653858120        4.1323500824
 H       -15.4942451326        1.2120934384        3.4081745037
 H       -14.2117590413        1.6122443480        4.7431221096
 H        -7.9199305898        6.3642927544        2.5422827797
 H        -8.2043100410        5.0984902044        1.1380321406
 H        -6.7723381362        5.1437861086        2.0820288043
 H        -6.5000493714        3.1649921004        2.8461472901
 H        -7.3201543695        2.8277590581        4.4027867344
 H        -6.4336254620        4.2600796656        4.2023625602
 Na      -11.6525840615        3.8385617764       -0.1387374352
