117

 C       -10.4232664366        5.5574316367        4.0695743658
 C        -9.0228465392        5.0593276286        4.2800475520
 O        -8.4113291716        5.2966553324        5.3488397028
 C        -8.1634608864        4.3453007127        2.9860798973
 C        -9.3078160294        3.5084869509        2.4586100917
 O       -10.0747334033        3.8884213119        1.5596346409
 C        -9.4779596986        2.1503515132        3.0501479898
 C       -10.8297950992        1.2739193838        2.9034962597
 C       -12.1076825619        1.9717296343        3.3768688108
 O       -12.1686893493        2.7931670344        4.3237280123
 C       -13.5680490754        1.6675914644        2.7745066714
 C       -13.9836967540        3.1033583891        2.3457636710
 O       -13.7241669150        3.4730918637        1.2026393902
 C       -14.9029234776        3.9230257154        3.3703486213
 C       -14.9750483766        5.4064025491        2.8364310612
 C       -15.7016799397        5.6549216725        1.4495585706
 O       -16.6772526671        4.9383568372        1.2614819197
 C       -15.3119421733        6.6269258324        0.3101012643
 C       -14.5583430367        5.6675864894       -0.7399429883
 O       -13.3530294459        5.5923366987       -0.5656806036
 C       -15.2523448043        4.8802805161       -1.7960262847
 C       -14.3359062953        4.1800125677       -2.8431883682
 C       -12.6946506726        4.0819028410       -2.5484981439
 O       -12.3590310811        3.1330942906       -1.8800215933
 C       -11.7308766750        4.9992694827       -3.3311394701
 C       -10.2503271782        4.9194707606       -2.8592833236
 O        -9.9197040623        4.6138925366       -1.7627757324
 C        -9.2103327922        5.2029114068       -4.0675513571
 C        -7.9820183921        4.3502413905       -3.8801485005
 C        -6.9270085735        4.3850537609       -5.0252326558
 O        -7.1119664811        5.1596636417       -5.9598453778
 C        -5.5488793057        3.6099991340       -4.7988423565
 C        -5.7194341133        2.3306148633       -4.0142056050
 O        -6.6462398941        1.6800352043       -4.2989358881
 C        -4.7020680111        1.8785373327       -2.9827898022
 C        -5.2749168469        0.6061484953       -2.3035964960
 C        -4.5627874695        0.4010058105       -0.9594725295
 O        -3.7274250869        1.1709440526       -0.6119548412
 C        -4.6381824128       -1.0303549844       -0.2445673595
 C        -4.7300162847       -0.6670262183        1.2776440759
 O        -5.8186449032       -0.5454726282        1.8344881677
 C        -3.3610229607       -0.3549532686        1.9264573850
 C        -5.9206374050       -1.7662331307       -0.6156133554
 C        -3.4767710065       -1.9942673475       -0.5605302714
 C        -4.9903352157        3.1721982941       -6.2074450725
 C        -4.4168929273        4.6065305632       -4.1578976262
 C       -12.1298697382        4.6197834854       -4.8751249739
 C       -12.2313754693        6.4709064793       -3.1543356963
 C       -16.6211555301        7.3543641647       -0.3912742061
 C       -14.2846827057        7.8071988445        0.6597966423
 C       -13.4267381919        0.6748004638        1.5755425924
 C       -14.4835156921        1.1255448599        3.9911449739
 C        -7.5541370581        5.4282385250        2.0837284837
 C        -7.0182612031        3.4255383948        3.6811263469
 H       -10.7513823483        5.7000677139        2.9471493011
 H       -10.5865363169        6.5824330337        4.5307340319
 H       -11.0421777193        4.9633696391        4.6985201545
 H        -9.2783521764        2.0482978337        4.1148818150
 H        -8.7108209130        1.3594124370        2.6232295802
 H       -10.7305853091        0.4037689956        3.4825310781
 H       -10.9994981337        0.8810117647        1.8567651780
 H       -14.4939993527        3.9605952589        4.3651120507
 H       -15.9965616307        3.4236708976        3.2759177171
 H       -13.8830012557        5.7172814920        2.5277557314
 H       -15.3751160795        6.1203472247        3.5966200709
 H       -15.8808458546        5.5500156506       -2.2734591762
 H       -16.0042036733        4.1679498049       -1.2897227580
 H       -14.5165005616        4.6136292952       -3.8313717776
 H       -14.6528287452        3.2312618964       -2.8819153664
 H        -9.0182610556        6.2586838439       -3.8639229528
 H        -9.7732856216        5.0688827640       -4.9914477843
 H        -8.4256075825        3.2836259000       -3.7342264601
 H        -7.4999106692        4.7508257507       -3.0069407290
 H        -4.5007358172        2.6766784390       -2.2945213488
 H        -3.7104843216        1.6474728806       -3.3149921382
 H        -5.1086059217       -0.3584110063       -2.9059069769
 H        -6.3677858682        0.8276126990       -2.1804271408
 H        -2.6126242298       -0.0844380459        1.1919437675
 H        -3.0499924624       -1.2257393322        2.5266129918
 H        -3.4443117059        0.5009348490        2.5495404852
 H        -6.3871883350       -1.4328290715       -1.5447830062
 H        -6.6572617372       -1.6144756409        0.1004231445
 H        -5.7933567898       -2.8665382010       -0.6195889574
 H        -2.5253392491       -1.5215993515       -0.7420711551
 H        -3.5727781049       -2.6519783426       -1.4209027022
 H        -3.3392403644       -2.7461584172        0.2831110695
 H        -3.9816219430        3.3461938317       -6.2000169668
 H        -5.3375416720        3.8718597462       -6.9299640505
 H        -5.2689735384        2.2216908494       -6.5215832123
 H        -4.2988776312        5.3170199778       -5.0029886590
 H        -3.3017729360        4.2423166219       -4.0767148754
 H        -4.7242395860        4.9072374015       -3.1474352780
 H       -12.0925634081        5.4798665275       -5.5231320685
 H       -13.0560068927        4.0660717401       -4.8360699497
 H       -11.3561146213        3.8744696463       -5.2924254154
 H       -11.7032479035        7.2676975122       -3.7469290572
 H       -12.1604266406        6.6086671790       -2.0560776118
 H       -13.2434744018        6.5928569072       -3.5979453834
 H       -16.8603312909        6.9918833041       -1.4452904381
 H       -16.4084008211        8.3918570132       -0.5360315557
 H       -17.4888488636        7.3903151659        0.2317395737
 H       -13.2829623112        7.4936035130        0.6649827995
 H       -14.5036303496        8.0499125513        1.7011481147
 H       -14.2786318305        8.6578132689       -0.0680350243
 H       -13.0379409139       -0.3164775665        1.8646144420
 H       -12.5709478886        0.8841097224        0.9769322760
 H       -14.3407452583        0.4351134715        1.0227768411
 H       -14.2704702484        0.0837789113        4.1408798418
 H       -15.5558507429        1.2872236147        3.8482971224
 H       -14.0040114172        1.5341805055        4.9293415810
 H        -7.4174902596        6.3804991591        2.6854471985
 H        -8.0685129691        5.4472626646        1.2134982896
 H        -6.4844208746        5.0897630670        1.8044479654
 H        -6.4589934435        2.8000050849        3.0186343579
 H        -7.5877986314        2.8537822966        4.4904767588
 H        -6.1902659739        4.0660937567        4.2205623979
 Na      -11.4944735360        3.9050961929       -0.1498564823
