117

 C       -10.3827850873        5.5185009629        3.9323491723
 C        -8.9061155257        5.2472897300        4.2862015236
 O        -8.4009161853        5.5355834338        5.3203641267
 C        -8.1370284145        4.4024512201        3.0580058587
 C        -9.2360134055        3.3612357768        2.4768440522
 O       -10.0485825398        3.8607254287        1.6577240790
 C        -9.5337523289        2.0743330948        3.2400848973
 C       -10.8984628265        1.5412164373        2.6657097217
 C       -12.1152093832        2.0725473698        3.3780639298
 O       -12.0462114104        2.8778372312        4.2995999211
 C       -13.5127113168        1.7007097834        2.8154564198
 C       -14.1609750335        3.0506824803        2.2712105148
 O       -13.7155803693        3.5125496358        1.2411851030
 C       -15.0097600424        3.9559862538        3.0470417980
 C       -14.7043458280        5.4885213959        2.7033432984
 C       -15.6470853178        5.7075300439        1.4459980131
 O       -16.6091985266        4.9660987822        1.2364432025
 C       -15.2498038259        6.7081848216        0.2479046309
 C       -14.5754760731        5.7304997128       -0.7976992232
 O       -13.3599090616        5.6061125650       -0.7522861940
 C       -15.2999647812        4.7846860998       -1.8446775318
 C       -14.2887629855        4.1624573291       -2.9048574460
 C       -12.8281286802        4.0788219470       -2.4813023302
 O       -12.3647750312        3.1301265978       -1.8835307481
 C       -11.8472624002        4.9637092141       -3.2507102396
 C       -10.3429486075        4.8054758078       -2.9387943887
 O        -9.7810286567        4.4184495296       -1.8893118761
 C        -9.0969028283        5.1671412765       -4.0367270890
 C        -7.9331725431        4.2613581080       -3.8341908872
 C        -6.8548684839        4.4166192806       -5.0145807116
 O        -7.1524133638        4.9373513163       -6.0029959866
 C        -5.5168772878        3.6141487839       -4.9468426459
 C        -5.7675032746        2.3834823087       -4.0169886064
 O        -6.6832683886        1.6142634488       -4.3921482745
 C        -4.8980714127        1.9729553938       -2.7835988746
 C        -5.3246422495        0.5755293425       -2.1857454799
 C        -4.4793026308        0.2578164982       -0.9683111538
 O        -3.8679149598        1.1317975005       -0.3892678552
 C        -4.7882596688       -1.1170918363       -0.1194793714
 C        -4.7294694296       -0.6897937072        1.3775594551
 O        -5.7077574144       -0.4644162803        2.0158521581
 C        -3.3848540262       -0.5451515282        1.9979552506
 C        -6.2040332313       -1.7678587318       -0.4816531549
 C        -3.5080521946       -1.9111262330       -0.4250168616
 C        -5.2629331657        3.0689062953       -6.3890077646
 C        -4.3223523784        4.5243921729       -4.3873298110
 C       -12.0779585515        4.6281638631       -4.8456958523
 C       -12.1699558740        6.5474976326       -3.0824680290
 C       -16.6014662314        7.3517065441       -0.2428141779
 C       -14.2404508831        7.7302991060        0.6848360242
 C       -13.4915839370        0.7082381646        1.5831237346
 C       -14.3566528861        1.1133601650        3.9636223581
 C        -7.4850158293        5.4391487300        2.0857119932
 C        -7.0504497948        3.4746309742        3.6460308168
 H       -10.7623066678        5.1368418537        2.9558018020
 H       -10.7224336390        6.5552708347        3.8596436026
 H       -10.8483825476        5.1146091252        4.8025201020
 H        -9.7006061871        2.2464328093        4.2728664555
 H        -8.8017581350        1.1442490013        3.2829410413
 H       -10.8886083720        0.4393018031        2.5917570300
 H       -11.0795878073        1.8315075437        1.5877929352
 H       -14.6615668287        3.7504154129        4.0689232780
 H       -16.0899664349        3.9187562865        2.8693376132
 H       -13.7004507624        5.7601981637        2.4055508197
 H       -15.1080856708        6.1339617742        3.5907427473
 H       -16.0136391891        5.3942865025       -2.3460862514
 H       -15.8855838368        4.0623941186       -1.4405652612
 H       -14.2995875089        4.6518083080       -3.7598723969
 H       -14.6139164407        3.1227559406       -3.0805289781
 H        -8.8667738783        6.2411949647       -3.7632919668
 H        -9.4797317010        5.0221621602       -5.1102764634
 H        -8.4630832234        3.2296303173       -3.8569139428
 H        -7.4611965584        4.5128903336       -2.8552091412
 H        -4.8372905953        2.8003024410       -2.0375960531
 H        -3.8595244938        1.8309953661       -3.0295551095
 H        -5.1748336588       -0.1636293658       -2.8550480220
 H        -6.3988832152        0.5690112650       -1.8937235717
 H        -2.6514328183       -0.2128019333        1.2087702648
 H        -3.0888022487       -1.4839191474        2.3761957182
 H        -3.3341969018        0.2904507455        2.6696243542
 H        -6.3611653698       -1.8789246533       -1.5653011088
 H        -7.0212922211       -1.1185759219       -0.1366662861
 H        -6.3394160811       -2.7172515075        0.0064878561
 H        -2.6059613017       -1.3497830313       -0.5661465714
 H        -3.5349921135       -2.5529214367       -1.3748571483
 H        -3.3192639778       -2.7102851095        0.3466295147
 H        -4.2445259866        2.8760301711       -6.6037653248
 H        -5.5895814899        3.8245900680       -7.0284161554
 H        -5.9499947364        2.2744600457       -6.5934164778
 H        -3.9362491241        5.1106211966       -5.2161042775
 H        -3.4473568028        3.9212244800       -4.1303847301
 H        -4.6177052348        4.9836765015       -3.4329960985
 H       -12.4540982482        5.5026330847       -5.3861311890
 H       -12.6978476291        3.7273691157       -4.8822485921
 H       -11.1460562820        4.3357877300       -5.3715465791
 H       -11.4062096617        7.1469970732       -3.3352418565
 H       -12.3098033722        6.6668682803       -2.0731407424
 H       -12.9510257054        6.9532772601       -3.7512008350
 H       -16.9887445545        7.0276227231       -1.2812529337
 H       -16.5492268936        8.4352832000       -0.2636986618
 H       -17.3931769148        7.1935817292        0.5220599715
 H       -13.3263134396        7.0796186521        0.9483955401
 H       -14.5271549089        8.2586035325        1.6025663468
 H       -13.8971788286        8.3658803927       -0.0856322672
 H       -13.1460528513       -0.3396870019        1.6276020026
 H       -12.7794887191        1.0900284970        0.8977909656
 H       -14.4987676435        0.6780398813        1.1075193701
 H       -13.9957158311        0.0405447173        4.0479224736
 H       -15.4162786086        1.1459877648        3.6460239401
 H       -14.1534673433        1.5451403302        4.9387683642
 H        -7.0009629256        6.1339658018        2.6942382934
 H        -8.3180534770        5.7136090769        1.4009172169
 H        -6.6688068038        5.0137654189        1.3659411650
 H        -6.7075369045        2.7531080570        2.8484684810
 H        -7.3572287025        2.9467004798        4.6421719127
 H        -6.1312385393        4.0540251226        3.7991388001
 Na      -11.3884894433        4.0037796244       -0.0174314120
