117

 C       -10.2858594331        5.9065157182        4.1107383170
 C        -8.8321862979        5.4108702685        4.2672190779
 O        -8.0747722115        5.9902483064        5.0974162735
 C        -8.0412613163        4.3702222425        3.2339345927
 C        -9.1700918771        3.4083406877        2.4876437209
 O        -9.5779968685        3.8710765677        1.4412846856
 C        -9.6158968539        2.1270619358        3.0954857555
 C       -10.9230547324        1.5063399089        2.5506641788
 C       -12.1312499669        2.1261905188        3.2402044318
 O       -12.0835183347        2.9313389037        4.1738802705
 C       -13.5135448168        1.6793898452        2.6719030316
 C       -14.0043176634        3.0436188058        2.1291582815
 O       -13.5106721334        3.5160797861        1.1129909036
 C       -14.7037368839        4.0554779521        3.0764758591
 C       -14.7419525112        5.4400236038        2.5218223564
 C       -15.6696088908        5.6601853401        1.2872181016
 O       -16.6769969672        5.0275011346        1.0743873066
 C       -15.1301222117        6.6388744217        0.1902077019
 C       -14.3462617945        5.6816608463       -0.8386524320
 O       -13.1118473097        5.7100504760       -0.8732054159
 C       -15.1388468866        4.8024035908       -1.7541572980
 C       -14.3779405589        4.3011396065       -2.9115258465
 C       -12.8352489377        4.2148095772       -2.6098609388
 O       -12.6181252995        3.2478698462       -1.8725108835
 C       -11.7579242764        4.9251677402       -3.4374083657
 C       -10.2336503452        4.6079194127       -2.8517701441
 O       -10.0908351174        4.0437141884       -1.8271251731
 C        -9.1291450169        5.1248414760       -3.7945927060
 C        -7.8006270278        4.1583067794       -3.7008610339
 C        -7.0341076328        4.1886720438       -5.0611088131
 O        -7.2862330607        4.9233438714       -6.0248751836
 C        -5.6527787221        3.3528970791       -5.1340187789
 C        -5.9413333083        2.1372665011       -4.0403687753
 O        -6.6746666281        1.3043013451       -4.4030294210
 C        -5.3075318198        2.0882145786       -2.6070301085
 C        -5.3985509785        0.6378754232       -1.9961878282
 C        -4.6828848999        0.3909130033       -0.6204018149
 O        -3.9485470580        1.2433510365       -0.2082152114
 C        -4.9854603358       -1.1078469494        0.1165776841
 C        -4.7589118630       -0.7964075144        1.6502736164
 O        -5.7062359056       -0.3276904957        2.2910427252
 C        -3.3748394148       -0.8281840719        2.3355092828
 C        -6.3137713930       -1.7289929518       -0.0958109733
 C        -3.9378981051       -2.0682000381       -0.4917261051
 C        -5.4647342892        2.7726250426       -6.6394490605
 C        -4.3796075508        4.2173548194       -4.8378548209
 C       -12.0642220555        4.6173145806       -5.0095771811
 C       -11.7478134149        6.5028376430       -3.2401545543
 C       -16.4944091543        7.4364564569       -0.3424053203
 C       -14.1124924341        7.7270031657        0.7380921717
 C       -13.5375629430        0.7339229605        1.5740999850
 C       -14.3471526078        1.2249403524        3.9911446107
 C        -7.7195836252        5.2824427012        2.0728300872
 C        -6.8990199215        3.6669226089        4.0108013909
 H       -10.6441171701        5.6987356303        3.0075678817
 H       -10.3257886709        6.9521984821        3.9707015141
 H       -10.9341589036        5.5833836553        4.8903351694
 H        -9.7406739118        2.1940109131        4.1830377429
 H        -8.8668524042        1.3357090677        3.0547740183
 H       -10.9229976507        0.4135219922        2.5770819598
 H       -11.0804318036        1.7150190497        1.4841762646
 H       -14.1297684926        4.0838774431        3.9765015117
 H       -15.7889649240        3.7164633002        3.2743675188
 H       -13.7518363330        5.7993859743        2.1554491430
 H       -15.0633143356        6.1556763976        3.1491638705
 H       -16.1100975251        5.3278770886       -1.9761062632
 H       -15.6432247488        3.9022916186       -1.0786511166
 H       -14.6043511078        5.1247551359       -3.8020562653
 H       -14.6248916791        3.2732069942       -3.2761722623
 H        -8.8729380225        6.0524276409       -3.3159432023
 H        -9.5430157666        5.2309891753       -4.7550272077
 H        -8.1273689055        3.1808426293       -3.5326191368
 H        -7.1555545501        4.6142140465       -2.9902706718
 H        -5.6274667924        2.7957441731       -1.8076407799
 H        -4.2173727405        2.3564927130       -2.7168191583
 H        -4.9467020326       -0.0592461708       -2.8868808535
 H        -6.4604529956        0.3752711361       -1.9607717874
 H        -2.7546480835        0.0233916971        2.1195477392
 H        -2.8722544592       -1.8040845702        2.0112344274
 H        -3.5634793460       -0.6207798410        3.3957829761
 H        -6.2195027038       -2.7674753396       -0.4800528091
 H        -6.9648834066       -1.1823756478       -0.7691943362
 H        -6.8091423585       -1.8549111377        0.9083221494
 H        -2.8683406866       -1.8601187468       -0.3239612430
 H        -4.0187979330       -2.0858905028       -1.5247067154
 H        -4.0595835105       -3.1045413233       -0.2321992947
 H        -4.8015404021        1.8554306234       -6.5290473006
 H        -4.9533766716        3.5211085777       -7.3826201890
 H        -6.4346961201        2.6113145431       -7.1960193162
 H        -4.2661132644        4.9846607854       -5.6140345104
 H        -3.5345277957        3.5067287993       -4.8267755204
 H        -4.3726531022        4.6965412670       -3.8954325416
 H       -13.1131265145        4.6610373732       -5.2587523360
 H       -11.6356473234        3.6845623959       -5.2871623068
 H       -11.6005635873        5.4024287945       -5.6183170514
 H       -11.2450901725        6.9796091488       -4.1456166853
 H       -11.1514626855        6.8425624357       -2.3711936154
 H       -12.7087391798        7.0273439973       -3.2541583738
 H       -16.8465670345        6.9735157784       -1.2500865740
 H       -16.2160718406        8.4674388907       -0.5981021603
 H       -17.3517493285        7.4926232138        0.3130861714
 H       -13.2845336998        7.3620728302        1.2823196116
 H       -14.6176668902        8.6119681493        1.2108577902
 H       -13.7638177522        8.2345327886       -0.2563418542
 H       -12.8495219192       -0.1333019526        1.6488621305
 H       -13.3596750795        1.1094025537        0.4840559873
 H       -14.5211717821        0.2700788865        1.5266267599
 H       -13.8715742207        0.4764829119        4.5825212868
 H       -15.3323145882        0.9274178521        3.6158113685
 H       -14.6673376602        2.1902222577        4.5228491054
 H        -6.6126268021        5.4817532261        2.2372046485
 H        -8.4134383778        5.9962828978        1.9270744287
 H        -7.6948264059        4.8311731628        1.0875722426
 H        -6.3252468425        2.9998911863        3.4850084508
 H        -7.2678226369        3.2267575963        4.8794505912
 H        -6.2499394424        4.5310997145        4.2291667220
 Na      -11.4512321020        4.1787814202        0.0856215012
