117

 C       -10.1434368171        6.1130416743        4.1435529354
 C        -8.6582126604        5.7243548055        4.2102692275
 O        -7.8615919972        6.2365475053        4.8849837287
 C        -8.0668457014        4.5807110713        3.2091558233
 C        -9.1330479059        3.6746248086        2.5219590832
 O        -9.6953102080        3.8090032518        1.4136994801
 C        -9.4029604016        2.2080455730        3.0654937584
 C       -10.6605544244        1.4060575764        2.6166761351
 C       -11.9783291264        2.0511490679        3.2186562101
 O       -11.9283884241        2.8629166143        4.0922059741
 C       -13.4842257973        1.7005769457        2.7398163986
 C       -13.9178563653        3.1659540539        2.1038317220
 O       -13.5616749942        3.4900895197        1.0000340782
 C       -14.6876074394        4.1337936431        3.0498407729
 C       -14.8219253545        5.5966080419        2.5787530437
 C       -15.5511366796        5.7277076717        1.1965776046
 O       -16.4955386669        5.0262348706        1.0129087525
 C       -15.1281982349        6.8190405428        0.1043150888
 C       -14.2224448642        5.9453195798       -0.8132063300
 O       -13.0076917003        6.0621299899       -0.8584063423
 C       -14.9113642559        4.8079575239       -1.6472791939
 C       -14.2262325750        4.8077661730       -3.0355644224
 C       -12.8608725876        4.2089952781       -2.7482326709
 O       -12.7863257621        3.2828415948       -1.9684925777
 C       -11.6775491371        4.8722319195       -3.6184842139
 C       -10.2624070148        4.4916945728       -2.9666089329
 O       -10.1797085282        3.8434268714       -1.9258067271
 C        -8.9897222897        4.9632170390       -3.7333542208
 C        -7.8333112878        4.0689853240       -3.6480270040
 C        -7.1101779700        3.9997903312       -5.0076234282
 O        -7.3746645443        4.8161727290       -5.8544321273
 C        -5.8760590563        3.0396941966       -5.0738267766
 C        -6.0793215096        1.8373246892       -4.0594359899
 O        -6.6333413228        0.7255516279       -4.4050658640
 C        -5.3983019712        1.9247800165       -2.6754842841
 C        -5.5680872816        0.5891559075       -1.8909504455
 C        -4.9855628657        0.4850247169       -0.5011522730
 O        -4.1501889163        1.2577939574       -0.0300308835
 C        -5.0758519626       -0.8448858735        0.2193024083
 C        -4.8005892323       -0.6918132538        1.8007671619
 O        -5.7164336194       -0.3152849643        2.4970082741
 C        -3.4811937617       -1.1673018586        2.3839951368
 C        -6.5446256919       -1.2748240664        0.1594261725
 C        -4.1883026049       -1.8400661379       -0.4108536238
 C        -5.9050964061        2.3366572599       -6.4867235409
 C        -4.5883952649        3.8962432077       -4.8389818406
 C       -11.6936145964        4.3639841779       -5.0911917623
 C       -11.7292993662        6.3515268194       -3.3363646487
 C       -16.2035315589        7.4624062610       -0.7977032339
 C       -14.1898280366        7.9138526224        0.7848649953
 C       -13.5379523848        0.5843891347        1.6626836389
 C       -14.4331071743        1.2023363562        3.7795552600
 C        -7.0932188016        5.4802187689        2.2032714854
 C        -7.1608338190        3.7108540944        4.0339649990
 H       -10.5494966479        6.2169843495        3.2158943955
 H       -10.2969516657        7.1491111411        4.5679687499
 H       -10.6381419567        5.2666393165        4.7748012468
 H        -9.3423230709        2.0856212767        4.1907724235
 H        -8.5381610352        1.6385436794        2.7093593122
 H       -10.7455773585        0.4047132984        3.1197049263
 H       -10.5859357632        1.1968374782        1.5556029427
 H       -14.0615957579        4.1730473384        4.0243803626
 H       -15.6158019353        3.6390573832        3.1970348434
 H       -13.9562160477        6.2436434262        2.7361153803
 H       -15.6834202945        6.1571557330        3.2148039851
 H       -15.9882579133        4.8165269259       -1.6490425700
 H       -14.7179367842        3.9602558428       -1.1952965032
 H       -14.3352383747        5.7333429803       -3.4873207044
 H       -14.6006144310        4.0707884896       -3.6729740850
 H        -8.6798321601        5.9847145508       -3.4804281121
 H        -9.3317289568        4.8385296403       -4.7778370632
 H        -8.0575084004        3.0429240374       -3.3079651802
 H        -7.0711275161        4.7062574991       -3.1041852865
 H        -5.8646245326        2.6656577574       -2.0546968654
 H        -4.3678099754        2.2109723664       -2.7863273755
 H        -5.1734650937       -0.0949333530       -2.5592967529
 H        -6.6430424375        0.3375923072       -1.9509591753
 H        -2.9627516665       -0.2691302045        2.7349432137
 H        -2.9174261023       -1.7072743898        1.7108231561
 H        -3.7441324969       -1.5647283356        3.3395893523
 H        -6.7290273279       -2.0543672929        0.8729583685
 H        -6.6639034845       -1.5942258715       -0.9096413418
 H        -7.2352613483       -0.4937025863        0.3852964154
 H        -3.1302035591       -1.6295538615       -0.3049919084
 H        -4.3481764690       -1.9598208147       -1.5054822662
 H        -4.2419717228       -2.8207077811       -0.0002346463
 H        -5.2716365739        1.4979450787       -6.3685234457
 H        -5.7096737899        2.9169069143       -7.3090681434
 H        -6.8840780912        1.9487957185       -6.6868130558
 H        -4.7048555562        4.9374495531       -5.2867865959
 H        -3.6800120238        3.2983389034       -5.0289195768
 H        -4.5436339050        4.2334303079       -3.6980375539
 H       -12.1729742848        3.3339593758       -5.1257675625
 H       -10.7440764698        4.3965004883       -5.6835680951
 H       -12.3561294290        5.0268126385       -5.6156892772
 H       -11.3109996425        7.0358480149       -4.1176092791
 H       -11.1974419074        6.6708816934       -2.3799114438
 H       -12.7531219763        6.6690341919       -3.2742577234
 H       -17.0283804827        6.8145370496       -0.9909506491
 H       -15.6704535260        7.8130037816       -1.6996981371
 H       -16.6820496776        8.3244754260       -0.3393709787
 H       -13.1805239045        7.4750214724        0.9803807256
 H       -14.6195442750        8.3739981810        1.6315152325
 H       -14.2192801187        8.7545580287        0.2071428498
 H       -13.1576679479       -0.3675340632        2.1139960614
 H       -13.1382749883        0.7979781505        0.6587811635
 H       -14.5469982702        0.3069892264        1.3326251113
 H       -14.1432041194        0.1407154379        3.7812385654
 H       -15.4698938629        1.2632370552        3.4384545015
 H       -14.4731179611        1.7804125023        4.6354440162
 H        -6.4785525557        6.0788346237        2.8335910518
 H        -7.6976838360        5.9564306361        1.2568850277
 H        -6.3772618931        4.8854327952        1.6980485700
 H        -6.6092670817        3.0078160818        3.2275030964
 H        -7.7174013411        2.9973486499        4.7033031130
 H        -6.5113637899        4.3662863751        4.6278067617
 Na      -11.5965634959        4.1344108843        0.0109024473
