117

 C        -9.5297530601        5.9569809244        4.7408964463
 C        -8.4817379824        6.1982762722        3.5849362117
 O        -8.0107803415        7.1812910366        3.2368449678
 C        -7.9737644036        4.8548860516        2.7845462715
 C        -9.2368494496        3.9654706281        2.2588083136
 O       -10.0059385154        4.5750536924        1.5244037186
 C        -9.4383305062        2.5883811829        2.7342071846
 C       -10.7538888768        2.0578739019        2.0610915266
 C       -11.9902325577        2.5321874844        2.8461433489
 O       -11.8303093150        3.2310902883        3.8778079126
 C       -13.3675344798        1.9874533057        2.5341109145
 C       -14.0891000702        3.3043779923        2.0950333732
 O       -13.7633650085        3.8478725692        1.0431201134
 C       -14.9063201462        4.1820912656        3.0218656013
 C       -14.7564311623        5.6788994008        2.7839671055
 C       -15.4794453966        5.9454743686        1.4549089501
 O       -16.5923712083        5.5397113615        1.2783541671
 C       -14.7958526075        6.8908096729        0.3097899687
 C       -13.8365863244        6.1093849518       -0.5818258295
 O       -12.6000374483        6.1704338433       -0.4737406956
 C       -14.3788392582        5.2560095564       -1.7915396450
 C       -13.4091360112        5.5002616053       -2.9744529279
 C       -12.1244479442        4.5033606889       -2.8720502330
 O       -12.1786267492        3.5633692733       -2.0323232684
 C       -10.9334356499        4.6841950558       -3.8265376140
 C        -9.6144606623        4.5993990560       -2.9589924992
 O        -9.6137214067        4.3089737817       -1.7917123006
 C        -8.2151929425        4.7633125242       -3.6325775615
 C        -7.4596762888        3.4505170389       -3.6573313963
 C        -7.0797019981        2.8317070390       -5.0359737549
 O        -7.5738552806        3.2392788984       -6.0102235673
 C        -6.0616704696        1.6457501743       -5.0790071047
 C        -6.6042472566        0.7407669678       -3.9681009580
 O        -7.4198096899       -0.0820481112       -4.1257600189
 C        -5.8408569043        0.7934989620       -2.6583279212
 C        -6.5476578179       -0.0280562011       -1.5007067223
 C        -5.9599696975        0.4861799525       -0.1959276373
 O        -5.2478597159        1.4524266191        0.0226968183
 C        -6.0960227896       -0.5227200910        0.9398521784
 C        -5.3961783244       -0.0190995205        2.2859539350
 O        -5.9588150618        0.4783790833        3.2208738357
 C        -3.8057295900       -0.2800491752        2.3737080092
 C        -7.5645006075       -0.8322814105        1.2832526460
 C        -5.4927873393       -1.8712823597        0.4971671681
 C        -6.0511151052        0.9473061558       -6.4678428149
 C        -4.6261303253        2.3372388401       -4.8567602768
 C       -10.9179326593        3.4455243611       -4.8520188947
 C       -10.8689442944        5.8504456154       -4.8071489267
 C       -15.8547153431        7.5584150739       -0.5411721396
 C       -13.8920272755        7.9629592655        1.0306768205
 C       -13.6004301405        1.1468920897        1.2256832254
 C       -13.9294830084        1.4347461590        3.8370879364
 C        -7.1509480590        5.0488648513        1.5739355362
 C        -6.9916977077        4.2826868388        3.9091123217
 H        -8.8565534267        5.9328580522        5.6564640462
 H       -10.1625452414        5.0426825330        4.4550261495
 H       -10.2581667842        6.7399874356        4.8116638302
 H        -9.5073556206        2.4972442492        3.7198987230
 H        -8.6163070764        1.9769034919        2.3600566377
 H       -10.8010669103        0.9612728380        2.0723003226
 H       -10.6742992950        2.3537536676        1.0154796386
 H       -14.4878020694        3.9675880373        3.9003275303
 H       -15.9858920630        3.8294494684        3.0060052088
 H       -13.6335002893        5.9308291129        2.8457073169
 H       -15.2708787023        6.3097346608        3.5379967451
 H       -15.3224237153        5.7513952581       -1.9199406960
 H       -14.4804057065        4.2840028301       -1.7106248140
 H       -13.1209021079        6.4709569221       -2.9487025638
 H       -13.8817649956        5.3402789705       -3.9863513057
 H        -7.6370021814        5.3809379087       -2.9769768594
 H        -8.2327430166        5.2231186897       -4.5899664176
 H        -7.9375323454        2.6788027331       -3.0146087531
 H        -6.4199122107        3.5916719002       -3.1880453635
 H        -5.6550245312        1.7751532275       -2.2076506441
 H        -4.8641136667        0.3489674872       -2.5880650280
 H        -6.4009204303       -1.0496897814       -1.6766144260
 H        -7.5390640947        0.1765144325       -1.5944153035
 H        -3.7240524957       -1.3536770242        2.5253031554
 H        -3.3325620465        0.2793927302        3.2229927022
 H        -3.3918486496       -0.0096657890        1.4107515014
 H        -7.9823408485       -0.8838780047        0.2633700505
 H        -7.9677532522       -0.0228692008        1.8504555460
 H        -7.5967357595       -1.8056288825        1.8628718199
 H        -4.7624603440       -1.8010834201       -0.2938608370
 H        -6.2507340197       -2.5119698709        0.1500508031
 H        -5.0931187594       -2.4478455682        1.3396171695
 H        -5.1527178659        0.3284549147       -6.6125677975
 H        -5.8259515815        1.7013616966       -7.2609412721
 H        -7.0288564588        0.3991965373       -6.5808789439
 H        -4.1803566740        2.4890705801       -5.8588450781
 H        -3.7947248883        1.7346514909       -4.3719178907
 H        -4.7567246260        3.1298639080       -4.1136520029
 H       -11.4523045062        2.6764349718       -4.4143864647
 H        -9.9330517907        3.1002270609       -5.0953096920
 H       -11.4237680527        3.7065960346       -5.8130963292
 H       -10.0248681956        5.9454183579       -5.5072033321
 H       -10.8890779179        6.7785091273       -4.1448078098
 H       -11.8576477951        5.8524255019       -5.4842193072
 H       -16.5269046979        6.7583148283       -0.9714372609
 H       -15.4831804463        8.1075523904       -1.3377182595
 H       -16.3430094994        8.1828501054        0.1310833967
 H       -13.0075682790        7.5653027040        1.4775282287
 H       -14.4533917597        8.3962571932        1.8571776694
 H       -13.4904651255        8.5788135866        0.2097920278
 H       -12.9455512648        0.2537821025        1.0654036954
 H       -13.3014941064        1.7389527147        0.3453964927
 H       -14.6764412421        0.7789561553        1.3449835044
 H       -13.9978447759        0.3781526929        3.9081467309
 H       -14.8763688096        1.9021854573        4.0302651128
 H       -13.1474026510        1.5688049489        4.5860433386
 H        -6.5261142694        5.8334350532        1.7135595316
 H        -7.6217083972        5.5924075768        0.7907060552
 H        -6.8060850786        3.9709075417        1.3781986465
 H        -6.4258362835        3.4404615734        3.5260324465
 H        -7.6769509182        4.1359568570        4.8047368352
 H        -6.2302427486        5.0544051422        4.0099382649
 Na      -11.4932452173        4.0942356865       -0.2690814896
