117

 C        -9.4081556060        5.9547312392        4.6257565037
 C        -8.5345967047        6.2185235006        3.3356381247
 O        -8.4158822380        7.3030905942        2.6785555823
 C        -7.9062356395        4.8607081919        2.6954235497
 C        -9.0859825678        4.1219244614        2.2492719614
 O        -9.9997016523        4.8102436914        1.7926722625
 C        -9.2535750326        2.5801869407        2.4550791423
 C       -10.6567373394        1.9054229273        2.1947718338
 C       -11.8410952321        2.5048730846        2.9317360155
 O       -11.7219707170        3.4539670224        3.6258327024
 C       -13.3832800760        2.0443936239        2.4997711184
 C       -14.0791689638        3.4538343828        2.0348090425
 O       -13.7742887028        3.9960555193        0.9959112211
 C       -14.8947890121        4.2750669284        3.0966389030
 C       -14.7824589635        5.7881565702        2.8222753233
 C       -15.3819408136        6.1134247669        1.4778257402
 O       -16.3511533021        5.4891218005        1.0736182999
 C       -14.7405288361        7.1496236419        0.3994927104
 C       -13.7002422655        6.2428905343       -0.4853458137
 O       -12.5326790063        6.1708934450       -0.1626653450
 C       -14.2283358332        5.5275366197       -1.8035120864
 C       -13.2057776862        5.5178288464       -3.0503759100
 C       -12.0804090660        4.4316741405       -3.0098947510
 O       -12.1362140102        3.4544264393       -2.3513490559
 C       -10.7965026839        4.5063744772       -3.9341504501
 C        -9.4577722515        4.6393171318       -3.0570876107
 O        -9.4958523144        4.5166281416       -1.8270076265
 C        -8.1732911043        4.7477441874       -3.8161591125
 C        -7.1727741608        3.5109574716       -3.7918902044
 C        -6.9582217480        2.6881280673       -5.1043834436
 O        -7.7221664080        2.9133290446       -6.0076828653
 C        -6.0954011579        1.4241177902       -5.1299702414
 C        -6.6350615716        0.4911592515       -3.9107461603
 O        -7.6713280451       -0.1861964593       -4.0985127968
 C        -5.8740813447        0.3708897902       -2.6398441162
 C        -6.7489622422       -0.1956150770       -1.4396865607
 C        -6.0996923330        0.3017999469       -0.0985121339
 O        -5.5674705202        1.3900897817       -0.0092147865
 C        -6.2254851438       -0.5273267788        1.1654964773
 C        -5.4946567389        0.1515891021        2.3915641899
 O        -6.1868125630        0.6391349458        3.3029153606
 C        -4.0364093424        0.2219603305        2.3237508199
 C        -7.7682198118       -0.6118989147        1.4919651506
 C        -5.6569181717       -2.0095610250        0.9298932337
 C        -6.1055582501        0.6354335864       -6.4906513267
 C        -4.6701527877        1.8306426494       -4.6851037969
 C       -10.5864784554        3.1476557058       -4.6328171193
 C       -10.9011666630        5.8221818122       -4.7783292974
 C       -15.9590411896        7.7497189462       -0.3450552105
 C       -13.9510460472        8.2650358837        1.0322465377
 C       -13.3248884334        0.9207521099        1.3713773597
 C       -14.2977558211        1.3322945307        3.5739523076
 C        -7.0987977559        5.1837705260        1.4022963610
 C        -7.0197454052        3.9831135247        3.6979350449
 H        -9.4767941231        6.8555316333        5.2532683642
 H        -9.0911143896        5.1179330232        5.1299053531
 H       -10.3258966924        5.5700652580        4.2086968167
 H        -9.3073872552        2.3327388854        3.6518612786
 H        -8.5062981806        1.9147397922        2.0017133745
 H       -10.6169329988        0.8021227672        2.3721075879
 H       -10.8561390590        2.0035729390        1.0960678670
 H       -14.4906702946        4.0137064732        4.2121684330
 H       -15.9009233841        3.9830543314        3.0628397515
 H       -13.7784283456        6.1541661380        2.8583452570
 H       -15.3529531785        6.2045416665        3.6362633743
 H       -15.3035785888        5.6801978814       -2.1213381174
 H       -14.0815784980        4.3353289404       -1.4792265920
 H       -12.7421608798        6.5806261951       -3.4029081593
 H       -13.9072336477        5.2723519865       -3.8674394073
 H        -7.6443907865        5.6696319927       -3.3933134231
 H        -8.2336222610        4.9422404787       -4.9329237262
 H        -7.5538071406        2.6556880386       -3.2002549405
 H        -6.2388090801        3.6772290324       -3.2767354305
 H        -5.2961822344        1.1552737876       -2.1965627873
 H        -5.1819277494       -0.4533966736       -2.8034642724
 H        -6.7752729461       -1.3739471901       -1.5269063075
 H        -7.7151760063        0.2895494097       -1.7450104254
 H        -3.5929349375       -0.6089234505        1.8209340507
 H        -3.6804625098        0.2412348969        3.3491487912
 H        -3.8804000672        1.2087933924        1.8732225721
 H        -8.3560473355        0.1349603604        1.0235382435
 H        -7.7552137960       -0.4518897333        2.5954583382
 H        -7.9833902177       -1.6011510012        1.3144455548
 H        -4.5598682744       -1.9750580111        0.9851939481
 H        -5.9896125250       -2.5487915005        0.0165117066
 H        -6.0148811716       -2.6365273147        1.6941148716
 H        -5.1703757072        0.1868192244       -6.7436227436
 H        -6.3824093589        1.2460340792       -7.3213985323
 H        -6.9049344758        0.0106897157       -6.3108610333
 H        -4.1635400966        2.3037813098       -5.5092221099
 H        -4.0313971755        0.9693783695       -4.5168262951
 H        -4.6728542388        2.2468447484       -3.6892063576
 H        -9.7312251341        2.5661729516       -4.1065124477
 H       -10.2516741599        3.2130064435       -5.6872752633
 H       -11.5117307419        2.6088663900       -4.6263648598
 H       -10.2127121614        5.7881820578       -5.5847485851
 H       -10.6295083015        6.6489137347       -4.2457348887
 H       -11.8240964382        5.8802112796       -5.2537904855
 H       -16.7469051259        7.1073587229       -0.2231456164
 H       -15.7959477510        7.8022826383       -1.4679751889
 H       -16.1512142721        8.7989312610        0.0167832841
 H       -13.0905874227        7.9078429099        1.5874535738
 H       -14.5297139021        8.5733628253        1.8763823144
 H       -13.6518917437        8.9500250626        0.2598169748
 H       -12.4446633121        0.2728578184        1.2810180649
 H       -13.0351495365        1.5424716810        0.4799900159
 H       -14.2735212955        0.4267230777        1.3659019861
 H       -13.9313323398        0.4074507649        4.0568232670
 H       -15.2078651786        1.0912370843        2.9565145183
 H       -14.5502378094        1.9740428549        4.4300022793
 H        -6.2119067815        5.9515304823        1.5341049014
 H        -7.6734641844        5.9108036725        0.8819960648
 H        -6.8654773342        4.3125758434        0.8132062575
 H        -6.6335912016        3.1972082710        3.0900905443
 H        -7.6342722148        3.6909192209        4.5273791699
 H        -6.0881812159        4.5695135122        3.9351447775
 Na      -11.3634728852        4.3128170556        0.1648895650
