117

 C        -9.2080512802        6.2420048227        4.5470554678
 C        -8.5539194807        6.2382043311        3.2061494730
 O        -8.6254004904        7.1174499287        2.4131372071
 C        -7.8957516947        4.8148635439        2.6362003531
 C        -9.1959681869        4.0093008368        2.1449785029
 O       -10.1750989446        4.6575811927        1.8020753314
 C        -9.2951447205        2.5743218404        2.4934095466
 C       -10.6607767658        1.9239099156        2.2233888192
 C       -11.8745082079        2.5695010796        2.9639112283
 O       -11.8400318708        3.4353941534        3.8077327437
 C       -13.2556293791        2.1561347082        2.4113201564
 C       -13.7971651527        3.4670146533        1.9516441576
 O       -13.5242680518        3.8867025845        0.8062132785
 C       -14.5515377891        4.2933532470        3.0103614422
 C       -14.5602837458        5.8270863044        2.4870936721
 C       -15.3028299520        6.0960490845        1.1474119614
 O       -16.2170694034        5.4066735290        0.8017192850
 C       -14.7039667239        7.2425916553        0.3364723718
 C       -13.6199776760        6.4743766549       -0.4524463130
 O       -12.4962444398        6.4475442696        0.0428181440
 C       -13.9271774608        5.6554645176       -1.6512245066
 C       -12.8784111952        5.6861498270       -2.7634878671
 C       -11.9842857648        4.4120291758       -2.7365280716
 O       -12.2045273178        3.3413948194       -2.0944596115
 C       -10.7395453254        4.3904987879       -3.8568706573
 C        -9.4444127108        4.5581301903       -2.9993295371
 O        -9.3726204759        4.7203537570       -1.8056419703
 C        -8.1679678080        4.6396301091       -3.9515858022
 C        -7.1138764850        3.4664758474       -3.7713596141
 C        -7.0274341867        2.4070941985       -4.9671820347
 O        -7.7698121145        2.7182804291       -5.9219675639
 C        -6.1494134229        1.1848277788       -4.9387663625
 C        -6.7429536591        0.1540711507       -3.9141957066
 O        -7.9030878853       -0.1225379517       -4.1104967951
 C        -5.9061437932       -0.2046403563       -2.5696324511
 C        -6.8461567869       -0.3497673814       -1.2924355680
 C        -6.2609980888        0.1732230616       -0.0252296885
 O        -5.8462749675        1.3249990199        0.0054504159
 C        -6.4628625544       -0.6735777130        1.4236850369
 C        -5.7319258049        0.2772771475        2.4900673235
 O        -6.3368798512        0.8900091688        3.3201369768
 C        -4.2872885743        0.7914851123        2.3391029087
 C        -7.9948308042       -0.7737369618        1.6739500304
 C        -5.8640712799       -2.0391816669        1.4370487530
 C        -6.3418425627        0.5282021773       -6.2904463377
 C        -4.6983111432        1.5949861852       -4.9028632736
 C       -10.7416673668        3.0763747804       -4.6660225250
 C       -10.8317978914        5.5209161223       -4.9465612318
 C       -15.7871902297        7.8865330870       -0.6031303729
 C       -14.0395672327        8.3273007352        1.2170252985
 C       -13.2265999726        1.3218035362        1.1277576862
 C       -13.9512722552        1.4632312802        3.7060539281
 C        -6.9395985150        5.3876492685        1.3579943865
 C        -6.8891474073        4.0491486864        3.4663562160
 H       -10.0156993552        6.9026979507        4.6364245928
 H        -8.3318852575        6.6414649728        5.1650251501
 H        -9.1916768192        5.1396364433        4.9610474563
 H        -9.1050956435        2.3956691693        3.4435751911
 H        -8.5873132040        2.0293734346        1.8916514332
 H       -10.7411566706        0.9138725920        2.5559553878
 H       -10.7723637629        1.8803386764        1.1702868327
 H       -13.9084781756        4.2436190645        3.7883701819
 H       -15.5603293824        3.8456587014        3.3798807496
 H       -13.4753509881        6.0932663000        2.3460537944
 H       -14.9968621380        6.3507966964        3.4197886629
 H       -14.8313276046        5.8981324459       -2.1511253220
 H       -14.1028703333        4.8067426478       -1.2008553060
 H       -12.2887874741        6.4805398491       -2.6865224904
 H       -13.4150818212        5.9164229556       -3.6696264822
 H        -7.6677289657        5.5012212307       -3.6234141481
 H        -8.2251999582        4.7798321116       -5.0003826623
 H        -6.9794171126        3.0959712108       -2.7335485735
 H        -6.1258607516        3.9758434138       -3.7638324874
 H        -5.2854475464        0.6565187921       -2.2171587576
 H        -5.2284378595       -1.0695196604       -2.4422123932
 H        -6.9948923009       -1.3307453996       -1.1637180233
 H        -7.7259650259        0.1962012739       -1.5970293295
 H        -3.8418115909        0.4186039250        1.3712694755
 H        -3.6408849486        0.4908246900        3.1603618906
 H        -4.4972794872        1.8522459585        2.3636690433
 H        -8.1174678770        0.1912120135        2.2055100241
 H        -8.1667824499       -1.5290795220        2.3639701912
 H        -8.5204583613       -0.9273700473        0.6798729346
 H        -4.7900787096       -2.1109121180        1.5572905054
 H        -6.2662093486       -2.6017452902        0.5868467923
 H        -6.3423074528       -2.6157686743        2.3221471691
 H        -5.5269613882       -0.2223088590       -6.3069435581
 H        -6.0935845256        1.3077630034       -7.0470683615
 H        -7.4239662859        0.2406761333       -6.5471338131
 H        -4.5782151854        2.3319292133       -5.6880681708
 H        -4.0361315480        0.7934764825       -4.9912763891
 H        -4.4083186875        2.0431240204       -3.9423304331
 H        -9.7745858469        2.7944859299       -4.9134366528
 H       -11.1666956723        3.2660004033       -5.6498101992
 H       -11.3902471839        2.2838160058       -4.2469280518
 H        -9.8840001074        5.3966046026       -5.6088067433
 H       -10.8891932533        6.6423876609       -4.6220740375
 H       -11.6097029457        5.1902336522       -5.6406655391
 H       -16.5615318857        7.1206151758       -1.0384012425
 H       -15.3253050945        8.4514800971       -1.3768301123
 H       -16.2764138071        8.6274454167        0.0143615748
 H       -13.1935750742        7.8629437154        1.7939461498
 H       -14.5837269220        8.6663660982        2.0939356527
 H       -13.7138447171        9.0407645954        0.4589446305
 H       -13.2758088020        0.2352714929        1.3159979637
 H       -12.3403816180        1.4498405413        0.5710433411
 H       -14.1954097269        1.6523161003        0.7324191958
 H       -13.2206949955        0.8847550057        4.3115887998
 H       -14.7062951916        0.7115400646        3.3798943018
 H       -14.4591298095        2.2017544673        4.3720596881
 H        -6.0291947616        5.8279274369        1.6795867959
 H        -7.4945518279        6.1889489072        0.6524571701
 H        -6.6693443759        4.5004845353        0.8005369676
 H        -6.6286327539        3.0961059822        2.8984506728
 H        -7.4837306893        3.8666235309        4.3287839722
 H        -6.0745894319        4.6125314343        3.6411803735
 Na      -11.4297340785        4.4387521385       -0.1588043927
