117

 C        -8.7132305417        6.4487721965        4.6502304295
 C        -8.4919565358        6.3286331156        3.0529182187
 O        -8.7775474744        7.2595241424        2.3574499736
 C        -7.8908128812        5.0031750187        2.4988180217
 C        -9.1463815765        4.1368143624        2.2355535311
 O        -9.9849042602        4.4271251621        1.3866851856
 C        -9.1726251477        2.7174429062        2.7497572545
 C       -10.3623889581        1.9299617368        2.1636861846
 C       -11.6337352789        2.5006301136        2.8489547102
 O       -11.5277956319        3.0441632330        3.9393799069
 C       -13.0791057707        2.1604212181        2.3571158459
 C       -13.7173468126        3.6370997269        1.9021689408
 O       -13.4641527067        3.9785927649        0.7660460447
 C       -14.5619152131        4.5209280525        2.8549775546
 C       -14.5111820571        5.9458608759        2.3850775807
 C       -15.1080092678        6.1626125461        1.0310491146
 O       -16.0143603438        5.4507767461        0.6285700488
 C       -14.6501579641        7.4262720383        0.2195700038
 C       -13.3885941137        6.7229834458       -0.5345290873
 O       -12.3205350478        6.7576892179        0.0357040260
 C       -13.6828088711        5.7971700744       -1.6706584166
 C       -12.4773051703        5.8713764021       -2.6284318296
 C       -11.9164845829        4.3899248859       -2.8904088180
 O       -12.1511047285        3.4638022688       -2.1557651762
 C       -10.8035588064        4.2870764347       -3.9886933627
 C        -9.4223603683        4.3893132105       -3.1694758352
 O        -9.4686107160        4.5650524796       -1.9274165670
 C        -8.0187178824        4.4474860517       -3.7882529318
 C        -7.0600050473        3.2752348703       -3.7182123736
 C        -7.2056895410        2.4369031779       -4.8491205391
 O        -7.9433792957        2.7097905298       -5.7611342886
 C        -6.2546657048        1.0361181794       -4.8381668215
 C        -6.9070983136        0.0024646239       -3.6078825616
 O        -8.0832319663       -0.2247826810       -3.7105739324
 C        -5.9888629582       -0.4085300530       -2.4038244272
 C        -6.8750060887       -0.8323992909       -1.1822555160
 C        -6.5534457948        0.0425371486        0.0139363748
 O        -6.0857696230        1.1503749477       -0.1969429373
 C        -6.7076175419       -0.5413565508        1.4263223370
 C        -6.1052804212        0.4956924152        2.4425505565
 O        -6.7326646280        0.9599323099        3.3761316783
 C        -4.6491308471        0.9349232956        2.3042441667
 C        -8.1423668488       -0.8548295177        1.8595568373
 C        -5.7216034415       -1.7016571133        1.6274878269
 C        -6.5580681841        0.2431691816       -6.1272390460
 C        -4.8597816030        1.3416172389       -4.6623756123
 C       -10.9730995108        2.6693665114       -4.4680890496
 C       -10.8758970018        5.4492436895       -4.9942561986
 C       -15.6592575075        8.0107296828       -0.7982868710
 C       -14.2922131656        8.5955815951        1.1708938006
 C       -13.2121030770        1.1226337800        1.1719512566
 C       -13.8402510326        1.4993014028        3.4675304214
 C        -7.3122925561        5.0813370232        1.1121768047
 C        -6.9761520350        4.3375425948        3.6274095815
 H        -9.7163853014        5.8876272917        4.6649619767
 H        -8.9891816213        7.4789446695        4.8793472289
 H        -7.9813660498        6.1235709089        5.2575560209
 H        -9.3202012064        2.6038361751        3.9029395800
 H        -8.1923606545        2.1865849658        2.4952909975
 H       -10.3385632260        0.8206872632        2.3839612929
 H       -10.3312789950        2.0213883566        1.0490265461
 H       -14.0015610185        4.4156805834        3.8746285919
 H       -15.5071799654        4.0364715915        2.9551720439
 H       -13.4574321102        6.1792487061        2.3357320789
 H       -15.0048394573        6.5014079364        3.0880385083
 H       -14.7177991649        5.8895618045       -2.1755288556
 H       -13.7023535862        4.6472705787       -1.2722129919
 H       -11.6546078140        6.6408912829       -2.1998476683
 H       -12.7437887419        6.4228068437       -3.5938842035
 H        -7.4398873934        5.3502474259       -3.4358031552
 H        -8.1576355697        4.6793924724       -4.8643764506
 H        -7.2324151311        2.7429482865       -2.7905434120
 H        -6.0705960038        3.5824727433       -3.3534435297
 H        -5.3679423339        0.3499591562       -1.9940380903
 H        -5.3125040409       -1.2106585457       -2.6070486221
 H        -6.8477826593       -2.0045516518       -1.1167124152
 H        -7.8883216909       -0.5149046169       -1.4329719243
 H        -4.2290739039        0.6883074548        1.3934687584
 H        -4.1205734339        0.3131635160        3.0473446939
 H        -4.6204768300        1.9921879564        2.5965245854
 H        -8.2061137803       -0.9288554951        2.9361806960
 H        -8.3840065803       -1.8551895295        1.3681826739
 H        -8.6851913367       -0.0660966821        1.3975641721
 H        -4.7634495525       -1.3644036518        1.2075937520
 H        -6.0058167812       -2.6323420639        1.1798083630
 H        -5.4796629811       -1.7966067657        2.6327980282
 H        -6.3406374604       -0.8163129683       -5.8848242392
 H        -5.9535595836        0.6158635364       -6.9846144762
 H        -7.5374741551        0.4893946886       -6.4395620839
 H        -4.4185722864        2.0146736067       -5.4705076833
 H        -4.3087300467        0.3124251164       -4.5056027371
 H        -4.6539216179        1.9323549455       -3.7179774842
 H       -10.6245087953        2.5900838603       -5.5049082703
 H       -11.9998683997        2.3596666039       -4.4668406796
 H       -10.4408189797        1.9779479692       -3.8304573551
 H       -10.4241725177        5.2479507031       -5.8923029648
 H       -10.4602456348        6.2927598484       -4.5295502382
 H       -11.9635416354        5.6596088400       -5.2225001380
 H       -15.9792669087        7.3295736378       -1.5489315576
 H       -15.0822953576        8.8259913628       -1.2267879375
 H       -16.5747742371        8.4300763107       -0.4290639911
 H       -13.4040189731        8.4472276958        1.6760112991
 H       -15.0085695060        8.6480657879        2.0212421480
 H       -14.3895376215        9.5590204400        0.6173356309
 H       -12.4987083515        0.3362355530        1.4930803768
 H       -12.8600847574        1.4909787706        0.0919154926
 H       -14.2219051161        0.7286411341        1.2591077309
 H       -13.5355847578        0.4711126750        3.5705852946
 H       -14.9326875484        1.4490548210        3.3104032935
 H       -13.7547541335        2.0934614630        4.4160024238
 H        -6.4568794187        5.8101771317        1.1186263528
 H        -8.0524352875        5.2576480121        0.4006305881
 H        -6.7672862887        4.0998041284        0.8175633980
 H        -6.4517542653        3.5593360251        3.1309507989
 H        -7.6602311313        3.9860511094        4.4626074900
 H        -6.2539472806        5.2056217128        3.9607230216
 Na      -11.2150814776        4.6077883789       -0.2887437545
