117

 C        -8.6597337913        6.6878914113        4.6148174010
 C        -8.5100482603        6.5236315779        3.0918737580
 O        -8.8057400777        7.3481148579        2.3439476606
 C        -7.9298699108        5.0749050644        2.4706467482
 C        -9.0545299940        4.0033148829        2.1995778010
 O        -9.8400808402        4.3634939012        1.3407318672
 C        -9.1696387087        2.6812036164        2.8362826278
 C       -10.2946180749        1.8972402758        2.1875755245
 C       -11.6208916001        2.3429247019        2.8748298492
 O       -11.4257138972        2.9432287267        3.9291782062
 C       -13.0786435051        2.0976049644        2.3601235976
 C       -13.6111626168        3.5705694844        1.8519912868
 O       -13.3534064777        4.0661392459        0.7989679440
 C       -14.4845469340        4.4633625691        2.7808532221
 C       -14.4811708247        5.9874173293        2.5070715433
 C       -15.1520419748        6.2603260779        0.9627242263
 O       -15.9812985259        5.5096934359        0.5313450432
 C       -14.6086795033        7.5487631385        0.0585733502
 C       -13.3032991895        6.8882507112       -0.5603184984
 O       -12.2601810628        6.9040198660        0.1142555031
 C       -13.4727308309        5.9895094871       -1.6825785619
 C       -12.3368586127        5.8033526976       -2.7244267638
 C       -11.7837858776        4.4154122725       -2.9411036526
 O       -12.2743785976        3.4908219573       -2.2538770754
 C       -10.7351926867        4.2374718780       -3.9705822986
 C        -9.4480400687        4.3525821661       -3.2104519544
 O        -9.5476976931        4.3691787239       -1.9791902268
 C        -8.0914639773        4.5512249675       -3.8266032046
 C        -7.2288078182        3.2131733292       -3.5021044597
 C        -7.3305333253        2.2816484621       -4.7648291012
 O        -7.9570140152        2.5606693162       -5.7543024053
 C        -6.4433171211        0.8886340380       -4.7521748717
 C        -7.0671852587        0.0870449134       -3.5069938385
 O        -8.2115136841       -0.2610352137       -3.5201946433
 C        -6.1005596109       -0.4401971215       -2.5084576674
 C        -6.8004950757       -0.9713863507       -1.2252446020
 C        -6.6318942960        0.0036156470       -0.0808527206
 O        -6.2578520908        1.1683547538       -0.2595733791
 C        -6.6892642028       -0.5079939181        1.4185955118
 C        -6.2044776042        0.6312517060        2.5008339773
 O        -6.9781084812        0.9908712114        3.3411909502
 C        -4.7245289067        1.0746468576        2.3902250495
 C        -8.1568557481       -1.0098313405        1.8870409290
 C        -5.7063767507       -1.6696861301        1.6538424290
 C        -6.5921983247        0.0363708356       -5.9750374426
 C        -4.9082204641        1.1320007499       -4.4921835450
 C       -10.8526161849        2.7610796776       -4.4643347161
 C       -10.7688520565        5.2167582347       -5.1676419022
 C       -15.7329477066        7.9856823433       -0.8618088022
 C       -14.2481914460        8.6632536154        1.0900979707
 C       -13.0512817349        1.1546230928        1.1861783528
 C       -14.0656809072        1.5636593430        3.4680637015
 C        -7.2586000055        5.0731657360        1.0967965967
 C        -6.9054612670        4.4204414873        3.5278475858
 H        -8.8488503055        5.7187927526        4.9349071926
 H        -9.3791969034        7.3861475038        4.9857104531
 H        -7.5750999840        6.9351121081        4.8529254402
 H        -9.3373008281        2.7690712937        3.8383119070
 H        -8.2024881689        2.0664932473        2.6569465281
 H       -10.0478788139        0.7780331531        2.2804824695
 H       -10.2400136510        2.1159824293        1.1143357149
 H       -14.2483633899        4.1950367715        3.7534808907
 H       -15.5844810483        3.9985475474        2.5827674216
 H       -13.4486911842        6.3201734222        2.6655846038
 H       -15.1364194968        6.3413657423        3.2559377548
 H       -14.4596671625        6.4178666673       -2.1809116282
 H       -13.7357306872        4.9287435320       -1.4611602440
 H       -11.5337739959        6.5078858874       -2.5073667920
 H       -12.6346338324        6.1693083412       -3.7802229614
 H        -7.5396058381        5.3974486613       -3.2609456220
 H        -8.0374480566        4.9029651058       -4.8901987318
 H        -7.3868223532        2.9670552121       -2.5180009468
 H        -6.1995779546        3.5600040816       -3.2681156198
 H        -5.4270891753        0.2856187353       -2.0387552785
 H        -5.4113793041       -1.1959275672       -2.9394030598
 H        -6.1713148762       -1.8478157768       -0.9867779272
 H        -7.9212717167       -1.3150029227       -1.4296696687
 H        -4.2846786384        0.8669028623        1.4248558457
 H        -4.2518964816        0.3254694499        3.0472592660
 H        -4.6010626817        2.0776812905        2.7503052798
 H        -8.0578700049       -1.6478726194        2.7404647817
 H        -8.5491625741       -1.5564571327        1.0799534042
 H        -8.7070013987       -0.0736694002        2.0535553029
 H        -4.7991175510       -1.4049761956        1.1149226313
 H        -6.0567170353       -2.5529505916        1.1971966783
 H        -5.3259831278       -1.7299882462        2.6824114904
 H        -6.2662091166       -0.9208514527       -5.7217631770
 H        -6.0039161794        0.5491942591       -6.6960969626
 H        -7.5596801602        0.1209708548       -6.4139679682
 H        -4.4855868415        1.7724842629       -5.2672675033
 H        -4.4419220533        0.1270169936       -4.4642806341
 H        -4.6118737328        1.6940599859       -3.5949121384
 H       -10.7893149552        2.6440512772       -5.5131270287
 H       -11.8175382265        2.3151293799       -4.1054171100
 H       -10.0593408521        2.1140529322       -3.9481099243
 H       -10.1703165580        4.8084024402       -5.9299643008
 H       -10.3795107556        6.1119905861       -4.8252511657
 H       -11.7257225332        5.4420219695       -5.5197232529
 H       -16.2828231815        7.1197961824       -1.4149570731
 H       -15.4183985304        8.7728955173       -1.5161617320
 H       -16.5394581619        8.3921596720       -0.2827780921
 H       -13.3461885950        8.4624593655        1.6412550417
 H       -15.0447041193        8.7874279354        1.8497639681
 H       -14.2555606719        9.6773518326        0.6023692554
 H       -12.1252932693        0.5812269542        1.4475842976
 H       -12.9770001486        1.5847332483        0.1746312950
 H       -13.8998235889        0.4171088223        1.2976336191
 H       -14.0643879636        0.5011399588        3.5357722291
 H       -15.1220210996        1.8552450161        3.5034284542
 H       -13.6975767351        2.0996904353        4.3667264000
 H        -6.4070332353        5.6922914005        1.1274790854
 H        -8.0502657187        5.1486151611        0.2153574306
 H        -6.7377185330        4.0499312058        0.9196703292
 H        -6.3462211449        3.6856991724        2.9357897039
 H        -7.3912230133        3.9604810912        4.4053587693
 H        -6.3083279695        5.2042590997        3.7890681621
 Na      -11.1631701242        4.7674214819       -0.1796965923
