117

 C        -8.4823542964        6.7762390976        4.5061415798
 C        -8.4194001665        6.4755528620        2.9887055866
 O        -8.8401579665        7.3972013278        2.2379323394
 C        -7.8631933293        5.1020887673        2.4861986587
 C        -9.1024831830        4.0066747783        2.2663832756
 O        -9.7945390220        4.3621243043        1.3346969350
 C        -9.1643992210        2.6319107482        2.7748865406
 C       -10.4653401523        1.8752562542        2.2831598558
 C       -11.6852281645        2.3725747119        3.0382806891
 O       -11.6243712315        2.9175447853        4.1092365308
 C       -13.0420264448        2.1630614633        2.3342462424
 C       -13.4675781274        3.5457789389        1.8263210715
 O       -13.0178429600        3.9913092841        0.7759026551
 C       -14.5402169232        4.4345232292        2.7493906611
 C       -14.5341038432        5.9278374050        2.2976206877
 C       -15.1112025463        6.2559596335        1.0329282298
 O       -15.9239083207        5.6242698676        0.4736362446
 C       -14.5843401832        7.5309112440        0.2075537091
 C       -13.3210837867        7.0061438327       -0.4608498317
 O       -12.2024318668        7.0350802643        0.0976545385
 C       -13.4950337025        6.2040628903       -1.8567263689
 C       -12.2895771678        5.9890438959       -2.8090279529
 C       -11.9313312731        4.4713455079       -3.0484432494
 O       -12.3729394694        3.5960402163       -2.2979585738
 C       -10.7032363096        4.1117010730       -4.0032560390
 C        -9.4166808391        4.3701731564       -3.0273135091
 O        -9.4674951493        4.2280435623       -1.8567070513
 C        -8.0799004050        4.5501666243       -3.7939368767
 C        -7.2717951400        3.1098492362       -3.5410585692
 C        -7.2462129829        2.1789709615       -4.7327645111
 O        -7.9778595281        2.3392953856       -5.7334054410
 C        -6.6265603779        0.7796889513       -4.5976842124
 C        -7.2280079332        0.0199925984       -3.4153639263
 O        -8.4590313636       -0.2260161432       -3.3224888669
 C        -6.1633888247       -0.5748112693       -2.5020671614
 C        -6.6224300824       -1.1100105757       -1.0772156131
 C        -6.5875151826       -0.0451802161        0.0005568792
 O        -6.5494840862        1.1342640833       -0.3047896486
 C        -6.6017193272       -0.4800750261        1.4504939064
 C        -6.2732353516        0.6280388834        2.4866879571
 O        -7.0601192583        1.0056481209        3.3763231038
 C        -4.8864109069        1.1909835607        2.4620171652
 C        -8.0544106856       -1.1611842099        1.8023435776
 C        -5.6337839640       -1.7571163239        1.5923453290
 C        -6.7245751680       -0.0676261808       -5.8992516870
 C        -5.0140535213        1.1046822049       -4.3351030671
 C       -10.6944766009        2.6519364055       -4.6091271762
 C       -10.6567808074        4.9576932788       -5.4330643683
 C       -15.6636595982        7.8302565081       -0.8440386454
 C       -14.1579847364        8.7739639054        1.0085073050
 C       -12.9747694807        1.1783994460        1.0127766450
 C       -14.0833589261        1.7428513892        3.4720478966
 C        -7.1079217090        5.3436339157        1.1516220644
 C        -6.7707626465        4.5438185529        3.5666777878
 H        -8.0547293279        6.0153744211        5.1715803255
 H        -9.4992701159        7.0223881143        4.7576883349
 H        -7.8112029970        7.7193587251        4.4448158485
 H        -9.1522634836        2.6167427905        3.8391341203
 H        -8.3631450905        2.1453293001        2.4189142161
 H       -10.2444989032        0.8369529164        2.4532092860
 H       -10.6042314280        1.9958635340        1.2119837113
 H       -14.3179002909        4.2936613732        3.7859614712
 H       -15.5192842700        3.9319723867        2.5514121617
 H       -13.4838975699        6.2169769570        2.4044109520
 H       -15.2116196734        6.5033245845        3.0661948534
 H       -14.3591370086        6.5347006680       -2.3035636171
 H       -13.6497029301        5.1924854458       -1.7378903120
 H       -11.4755939407        6.3574683593       -2.3131649946
 H       -12.2489057901        6.5078244975       -3.7258531842
 H        -7.4446818559        5.3747815508       -3.5083053292
 H        -8.2316848317        4.7351135557       -4.8717580809
 H        -7.6930850053        2.6914928847       -2.5813472685
 H        -6.3744866871        3.3844241132       -3.0484613410
 H        -5.3874234739        0.1740039707       -2.1939206938
 H        -5.5985663922       -1.3910324766       -3.0698788684
 H        -6.0861769188       -1.9770862254       -0.8621375954
 H        -7.7123429541       -1.3945871087       -1.2835610752
 H        -4.4510158162        1.2962208083        1.4034520461
 H        -4.2452534745        0.4978913428        2.9721971005
 H        -5.0417696050        2.1429933236        2.9441575455
 H        -7.8547092876       -2.1347702159        2.2294959354
 H        -8.5506570739       -1.3276337677        0.9092671102
 H        -8.5918224346       -0.5005985359        2.4809427652
 H        -4.6809765764       -1.6190344614        1.1149158322
 H        -6.1078494842       -2.5062817908        0.9356159978
 H        -5.3505405715       -2.0070417647        2.6513153196
 H        -6.1917104684       -0.9346388799       -5.6479649916
 H        -6.3806581399        0.5502762901       -6.6666257265
 H        -7.7492518084       -0.2783999290       -6.1843305681
 H        -4.7684063119        1.6308046223       -5.1986020878
 H        -4.5242318001        0.2221402688       -4.4080948859
 H        -4.6207407246        1.7635077835       -3.6085393381
 H       -10.7125439939        2.5542461381       -5.7159679666
 H       -11.5532185594        2.0830602725       -4.1751047566
 H        -9.8259962792        2.1290432739       -4.1768381447
 H        -9.7404762142        4.6436502328       -6.0081817063
 H       -10.6299039837        6.0232715307       -5.1659279389
 H       -11.5244201087        4.8756976146       -5.9684141478
 H       -16.2080121603        6.9251106196       -1.1092189026
 H       -15.3518025762        8.4534664452       -1.7098795241
 H       -16.4831855835        8.3994782857       -0.3217408612
 H       -13.2028085338        8.6273905665        1.6926759065
 H       -14.9394998399        9.2803824042        1.5861482107
 H       -13.9818777395        9.5431544920        0.2731934772
 H       -12.1025964073        0.4261405779        1.1117452585
 H       -12.8726235339        1.8626961666        0.2039438539
 H       -13.9072209881        0.6384197923        0.8162589904
 H       -14.0186251582        0.6265091089        3.5354870440
 H       -15.1369408109        1.9482035523        3.3712823763
 H       -13.8759925598        2.2731254412        4.3631648102
 H        -6.1733730146        5.9090843361        1.4608774840
 H        -7.9351914909        5.8272155858        0.4941813650
 H        -6.7175186969        4.5376031563        0.5815353902
 H        -6.3117322332        3.6843057099        3.0794867012
 H        -7.0846986003        4.3076598203        4.5036489410
 H        -6.1282673742        5.3639494367        3.5931751751
 Na      -11.2373140049        4.9384420959       -0.2122866043
