117

 C        -8.3193868548        6.9714420715        4.5069141495
 C        -8.3870590611        6.5105827383        3.0134060366
 O        -8.8266914441        7.1631249672        2.0296086829
 C        -7.7481668724        5.1864200404        2.5147289051
 C        -8.9980042344        4.1579520223        2.0881480017
 O        -9.8618238673        4.4887314127        1.3296175391
 C        -9.0714500506        2.7289171639        2.7563951561
 C       -10.5164359276        1.9873377933        2.4584136698
 C       -11.7553140264        2.4423493528        3.1666684462
 O       -11.8700540108        2.8826275643        4.2731036848
 C       -13.1243399532        2.2485381014        2.3459295088
 C       -13.4467062475        3.6119596150        1.7792899337
 O       -12.7757521153        4.0212506942        0.8409603021
 C       -14.4074594431        4.4418271150        2.5392764340
 C       -14.3884571714        5.9281036590        2.3060376330
 C       -15.0957974755        6.2360210618        1.0174800125
 O       -15.9456048420        5.5637627436        0.4650665071
 C       -14.5344345865        7.5345504784        0.1204733091
 C       -13.2482080082        7.0189401267       -0.6080620792
 O       -12.1868864389        7.0742108665       -0.0641997845
 C       -13.4695371743        6.2691819892       -1.9844069961
 C       -12.1648186213        6.0878279541       -2.7600843792
 C       -11.9532592001        4.6205367230       -3.1874169843
 O       -12.4324851077        3.8108710277       -2.4579571619
 C       -10.7156932203        4.0506811873       -4.0139113096
 C        -9.4470930926        4.2020602154       -3.1174430644
 O        -9.4793225956        4.2514817802       -1.8867607217
 C        -8.0593643754        4.2702432205       -3.6735277117
 C        -7.2599976515        2.9759081220       -3.6124030452
 C        -7.4598013129        2.0630641563       -4.7205921758
 O        -7.9945882646        2.3308125940       -5.7691130933
 C        -6.6500263251        0.6905917347       -4.5344693245
 C        -7.2629878934       -0.1498905409       -3.2673272030
 O        -8.4640775604       -0.0990758178       -3.1021196215
 C        -6.2634575924       -0.8029696650       -2.3536919691
 C        -6.6340296707       -1.2683313798       -0.9445844718
 C        -6.6455260828       -0.0762113540        0.0172302162
 O        -6.8181319361        1.0860043292       -0.2746002856
 C        -6.5642993385       -0.7128472560        1.5023342088
 C        -6.2281982187        0.4784393952        2.5438111640
 O        -7.1059557731        0.8112372689        3.3442004395
 C        -4.8959722538        1.3300995286        2.4639136652
 C        -8.0176104175       -1.2212824397        1.7527055697
 C        -5.4432754289       -1.7708935043        1.6776197338
 C        -6.8799270579       -0.1212449983       -5.7646049152
 C        -5.1522635698        1.0987957532       -4.3308507218
 C       -10.6626412579        2.5421470338       -4.4202690472
 C       -10.6062720939        4.8635918044       -5.4092956382
 C       -15.6273242914        7.9453939588       -0.8440801113
 C       -14.1071738897        8.8090238368        0.9420366772
 C       -13.0855043207        1.2891486339        1.1265917758
 C       -14.0788584802        1.6543958436        3.3297789626
 C        -7.0337809689        5.6128915634        1.2314396917
 C        -6.7307220389        4.5915337821        3.5354871574
 H        -7.4693671988        6.5475198881        5.2448619728
 H        -9.3282853397        6.4937657445        4.7042028094
 H        -8.3927853266        7.9933788732        4.5248634066
 H        -8.8056634146        2.6716830623        3.8745119195
 H        -8.3596346104        2.1057766931        2.2395607950
 H       -10.3425047007        1.0025426100        2.7016044500
 H       -10.7063596389        2.0019613337        1.3977124224
 H       -14.3112457407        4.0390994944        3.6249368826
 H       -15.2716279910        4.0411862434        2.2468530662
 H       -13.3291883060        6.2718324896        2.3355498652
 H       -14.9967095925        6.3277429643        3.1904944338
 H       -14.0985031947        6.9363841248       -2.4737026860
 H       -13.9875725036        5.3812962497       -2.0565608779
 H       -11.3126891523        6.5309030051       -2.2703552154
 H       -12.2420168568        6.6165126173       -3.6289997131
 H        -7.5222660793        5.0618894523       -3.2604517133
 H        -8.0868754179        4.4925955122       -4.7081030178
 H        -7.3729639873        2.6119196795       -2.5156220523
 H        -6.2478134571        3.3654640455       -3.4611218472
 H        -5.3757234524       -0.1733822427       -2.1668867780
 H        -5.8912194545       -1.6525879561       -2.9596908329
 H        -5.9964939708       -2.0882675025       -0.6011104420
 H        -7.5452668719       -1.6587337848       -1.0736440333
 H        -4.7968114941        1.6160377477        1.4188284188
 H        -3.9770757419        0.8021035954        2.7296060611
 H        -5.1756580153        2.2577701839        3.0250080719
 H        -8.0694708244       -2.3107093873        1.8227535551
 H        -8.6066624210       -0.9204533888        0.8356191523
 H        -8.3289843902       -0.7281850421        2.6218498502
 H        -4.4816303208       -1.2850208175        1.3454337606
 H        -5.5040324248       -2.6349346605        0.9704295942
 H        -5.2657595429       -1.9643245034        2.7153346570
 H        -6.2543775947       -1.0258000659       -5.6496455353
 H        -6.9859789023        0.5390237678       -6.6431202402
 H        -7.8743922628       -0.4989378260       -5.5846810147
 H        -4.8263346804        1.6322304135       -5.1889243716
 H        -4.5625092176        0.1848534101       -4.3350782841
 H        -4.9946530871        1.7742874160       -3.5784802256
 H       -10.6971489027        2.2542853506       -5.5216993678
 H       -11.4680289166        2.0489935965       -3.8982252240
 H        -9.8005602520        2.1386135565       -3.9692498477
 H        -9.5934798661        4.7411912450       -5.8408240504
 H       -10.9094302743        5.9531302350       -5.2251144541
 H       -11.4927052014        4.5379619035       -6.1249946159
 H       -16.1333335997        7.1083073770       -1.1865076498
 H       -15.2911528007        8.5669266127       -1.7218600112
 H       -16.4378312630        8.5104254333       -0.3120984569
 H       -13.4143782872        8.5951640979        1.7723363762
 H       -15.0229359330        9.3537200640        1.2977746107
 H       -13.7028233801        9.6214453003        0.3155648352
 H       -12.7391613475        0.2638265126        1.3558185990
 H       -12.4938867735        1.9954372198        0.4591219602
 H       -13.9668873766        1.2485859855        0.5629053821
 H       -13.7726493372        0.6044819590        3.4862748803
 H       -15.0863539837        1.5520271049        2.9530191088
 H       -14.2920518597        2.2132281510        4.2223868748
 H        -5.9939841669        5.9950005979        1.4904038977
 H        -7.7519031136        6.1157879412        0.7687392728
 H        -6.8450557670        4.8470324714        0.4847527744
 H        -6.4080730842        3.6526678706        3.2902242710
 H        -7.2138916644        4.5078648462        4.5043802226
 H        -5.9784822343        5.4471636856        3.6322859073
 Na      -11.2608159637        5.0715824737       -0.3561898743
