117

 C        -8.3247197946        7.1134319218        4.3161550659
 C        -8.4719985816        6.5583380586        2.9535515822
 O        -9.0033380917        7.2148834566        2.1607927314
 C        -7.7015770419        5.1762774675        2.4513877139
 C        -8.9065121310        4.2996714832        2.0958244744
 O        -9.7650573877        4.7645476131        1.3476128612
 C        -9.0641777095        2.9630987005        2.8090431669
 C       -10.3769455537        2.1852755885        2.5602361771
 C       -11.7631556508        2.4916813642        3.2448647593
 O       -11.9614747893        2.8693023425        4.3978695883
 C       -13.1276485645        2.1734431872        2.3329656637
 C       -13.3424091209        3.7465900935        1.8558306811
 O       -12.6957607860        4.1309936078        0.9060677505
 C       -14.4414568549        4.5500588777        2.5155642285
 C       -14.2756836527        6.0708791385        2.2093315811
 C       -14.9725775614        6.3685652536        0.8363457401
 O       -15.8780823723        5.5619081042        0.5745130530
 C       -14.5805405963        7.5463157736       -0.0320122640
 C       -13.2367226679        7.0013978646       -0.8291923317
 O       -12.1795894507        7.0920984628       -0.2517335195
 C       -13.3930891167        6.4626692574       -2.1769474466
 C       -12.0147999012        6.1787046819       -2.9154108245
 C       -11.8099307294        4.5590408080       -3.0928826807
 O       -12.6179307002        3.8515410603       -2.5541391265
 C       -10.6750094549        4.0647375680       -3.9535850101
 C        -9.4228346193        4.2504613924       -3.1764783098
 O        -9.7030697004        4.3133973578       -1.9266510457
 C        -7.9663579127        4.2414890046       -3.6534540146
 C        -7.2128855761        2.9501751705       -3.5779981468
 C        -7.5196027302        1.9535004780       -4.6744498708
 O        -7.9996558754        2.3099675828       -5.7146429676
 C        -6.7381347869        0.5169875926       -4.5056533030
 C        -7.2285235619       -0.0745012053       -3.1100526106
 O        -8.3759857362       -0.0343026478       -2.8210150706
 C        -6.2595754774       -1.0066762077       -2.4175898628
 C        -6.7568415634       -1.3687281249       -1.0197608172
 C        -6.6751908792       -0.2841394468        0.0783636786
 O        -7.0022435178        0.8851360911       -0.1373344420
 C        -6.4617430697       -0.7409159326        1.6028176137
 C        -6.2939006514        0.4697150007        2.5225958889
 O        -7.0673414311        0.5981742553        3.4166174248
 C        -5.0092936179        1.2889620940        2.3808767285
 C        -7.8838375140       -1.3160843073        1.8390504951
 C        -5.2949344013       -1.6824771355        1.8382339930
 C        -7.0283334964       -0.4172105217       -5.7731502728
 C        -5.2738398356        0.9431884523       -4.4236015509
 C       -10.9013858045        2.5291096912       -4.0766930442
 C       -10.5817112763        4.8852235876       -5.3672078523
 C       -15.6774306975        8.1480034243       -0.9334365969
 C       -14.0896427752        8.6899257726        0.9377248561
 C       -13.0324282881        1.2073272276        1.1362706161
 C       -14.2786952467        1.4572899472        3.2716279425
 C        -6.8114955553        5.5631024166        1.1608670072
 C        -6.7723742829        4.5025547841        3.4962312022
 H        -7.2980317584        7.4560791337        4.4263618769
 H        -8.6038186616        6.2971124039        5.0181117801
 H        -9.0172604872        7.9743819330        4.3438415051
 H        -8.9225576477        3.0077441511        3.9214453837
 H        -8.1636134643        2.2132321114        2.3916794223
 H       -10.0916062083        1.2170772959        3.0015383139
 H       -10.5467956144        2.0034116932        1.5143774628
 H       -14.3306329214        4.1842201408        3.5361295047
 H       -15.4134265278        4.0673126158        2.1980480127
 H       -13.1740953530        6.1704322680        2.2201218003
 H       -14.7034931557        6.5579276733        3.0167185860
 H       -14.2728990017        7.0014186383       -2.7835110685
 H       -13.8747799849        5.4292150365       -2.0446212135
 H       -11.1673409179        6.6507402036       -2.3011235911
 H       -11.9535503618        6.7518744879       -3.9229039723
 H        -7.4226808404        5.1222694630       -3.2614199433
 H        -7.9613322869        4.4114106185       -4.7087538654
 H        -7.3307751589        2.6177378156       -2.5692368522
 H        -6.1559359621        3.3350225799       -3.4722932027
 H        -5.2558393940       -0.7516817951       -2.2700910796
 H        -6.2389704390       -1.8493803715       -3.0726084509
 H        -6.1831580636       -2.2527100076       -0.6165621719
 H        -7.7468124867       -1.7856332268       -1.2284095432
 H        -4.9702041605        1.7275206772        1.4239290980
 H        -4.2297048021        0.4953307311        2.3832601506
 H        -4.9606165254        2.0682258314        3.1387401657
 H        -7.8823261152       -2.2911653838        1.3345920892
 H        -8.5732267865       -0.6635026926        1.2321001601
 H        -8.0770591662       -1.3895326518        2.9226663118
 H        -4.2341238595       -1.3596338236        1.5923336407
 H        -5.4332325715       -2.5530448840        1.2458420812
 H        -5.2966866588       -1.8839827512        2.8864826868
 H        -6.3009092939       -1.2561844442       -5.7591509070
 H        -7.2226290920        0.3472312192       -6.5989946994
 H        -7.9931380954       -0.9450103564       -5.5694135859
 H        -4.8821305406        1.7329161890       -5.1251719752
 H        -4.5622693350        0.0497287220       -4.5583574477
 H        -5.2875912635        1.4665366822       -3.4618577365
 H       -10.9734109656        2.1527376459       -5.0478358644
 H       -11.8289390706        2.3406370895       -3.5685780038
 H       -10.1269152584        1.9741255033       -3.5396111155
 H        -9.5888038983        4.6047840153       -5.7510389114
 H       -10.7907413103        5.9952391646       -5.3017143916
 H       -11.4409422972        4.5225510213       -6.0348721621
 H       -16.0799912320        7.3592730836       -1.6336454615
 H       -15.2789239322        8.9052147572       -1.5560884109
 H       -16.5024450186        8.5017316002       -0.4016525665
 H       -13.5044402286        8.2891124530        1.6961975835
 H       -14.9859411513        9.2286504310        1.2843686440
 H       -13.4915379834        9.5614511370        0.5676363257
 H       -13.3249135735        0.2405797674        1.5116314301
 H       -12.1380224523        1.3880711499        0.4781823550
 H       -13.7610849171        1.4854290413        0.3420509520
 H       -14.0437824802        0.5324114555        3.7380167627
 H       -15.2264770762        1.3348469545        2.7232490824
 H       -14.7081876295        2.2364390615        3.9613098242
 H        -5.9762470066        5.9575952151        1.5109353624
 H        -7.4776353304        5.9325090180        0.3833159449
 H        -6.4386755295        4.6749741078        0.5729581188
 H        -6.4803194137        3.4577160243        3.2431345601
 H        -7.4868878815        4.3553981177        4.4228459934
 H        -6.0240247509        5.2477917773        3.7812202074
 Na      -11.1679426184        5.1220585885       -0.5686014885
