117

 C        -8.0043755326        7.2964590967        4.2675783681
 C        -8.3413666402        6.6984702927        2.8745106487
 O        -9.1653905714        7.2408092560        2.1441173347
 C        -7.7429576601        5.2833678896        2.5025350260
 C        -9.0282817482        4.5359399105        2.1285054482
 O        -9.6902202598        4.8158546481        1.1562241739
 C        -9.5108837308        3.4269692364        3.1011621795
 C       -10.4097222062        2.3875852272        2.4550234832
 C       -11.8240177829        2.4834856826        3.1887019575
 O       -11.8548965648        2.7967577924        4.3346150165
 C       -13.1095245939        2.2047990634        2.4037319576
 C       -13.2558407207        3.6658183284        1.8633016799
 O       -12.6084246527        4.1334952335        0.9296343568
 C       -14.2138259697        4.6633971388        2.6132279297
 C       -14.1545372451        6.0127669662        1.8952179601
 C       -14.9177190902        6.3931838289        0.6979763682
 O       -15.8845519719        5.8097938286        0.2543409167
 C       -14.4080698713        7.6818057027       -0.1559455824
 C       -13.2378394573        7.1996864067       -1.0114847452
 O       -12.1002024123        7.0821036540       -0.5253299816
 C       -13.4295479595        6.8588159465       -2.5303420429
 C       -12.1756100015        6.3599260796       -3.1870421482
 C       -12.0732516595        4.8162342568       -3.1453241213
 O       -12.8965400299        4.0760074447       -2.5914553246
 C       -10.7414523399        4.0148126641       -3.9272984682
 C        -9.3130384035        4.2500068250       -3.0115160637
 O        -9.3192976867        4.4551989026       -1.8409450338
 C        -8.0263969794        4.2458160018       -3.8106162591
 C        -7.3735643641        2.8051463721       -3.4447600345
 C        -7.5472920412        1.8027107747       -4.5847495445
 O        -8.1307850993        2.1535912822       -5.5824909699
 C        -6.7405868967        0.3964717446       -4.3834677806
 C        -7.1458264272       -0.1195988816       -2.9785758518
 O        -8.2149247625        0.1984100965       -2.5013558962
 C        -6.3920923764       -1.2156470446       -2.2935474716
 C        -6.8213201741       -1.7498116445       -0.9065905528
 C        -6.8362765378       -0.5180065187        0.1385214709
 O        -6.9478094639        0.6146100053       -0.1898506190
 C        -6.5293091055       -1.0483246593        1.7908923475
 C        -6.2752587795        0.3000715396        2.6137522382
 O        -7.0196047427        0.5623335487        3.5626278699
 C        -5.1610353753        1.3823285137        2.1997575972
 C        -7.7053487598       -1.8927144136        2.2283185006
 C        -5.1969799598       -1.8475703795        1.8301610258
 C        -7.4035083825       -0.5365527442       -5.5138877154
 C        -5.2373148569        0.4664582893       -4.6482526803
 C       -10.9946496343        2.4542425852       -4.0209140116
 C       -10.6005669069        4.4507758828       -5.3180256224
 C       -15.6825874387        8.1228358118       -1.0257566377
 C       -13.9760824354        8.8262204278        0.7752935491
 C       -12.7457875986        1.2579272892        1.1762928616
 C       -14.3030838331        1.7779726865        3.2469260562
 C        -6.8777456432        5.4156860382        1.2039094357
 C        -6.8681385232        4.7902292667        3.6011014311
 H        -8.2955638193        8.3951905980        4.1295733612
 H        -6.9649079896        7.1021088299        4.5754719505
 H        -8.6610044133        6.8767094699        4.9934743578
 H       -10.0676119685        3.9219990140        3.8890507156
 H        -8.7547049034        2.9932834966        3.5532445486
 H       -10.0452939616        1.3357724431        2.5616816328
 H       -10.4653122550        2.6139041720        1.3401635375
 H       -13.8870387287        4.6213581534        3.7021542065
 H       -15.2214221212        4.3404366111        2.6361316441
 H       -13.1303943555        6.2506721082        1.6494590039
 H       -14.4437296614        6.6902253165        2.7673793645
 H       -13.6250497782        7.6837918984       -3.1557814803
 H       -14.3810804180        6.2868551600       -2.6470053940
 H       -11.2678609563        6.7236687805       -2.6792657108
 H       -12.1113103347        6.7590830205       -4.1756011057
 H        -7.5825752255        5.1926523301       -3.4430974736
 H        -8.0205661672        4.3024558494       -4.9615499868
 H        -7.6624857823        2.6323241550       -2.3508017752
 H        -6.3424255162        3.0509619034       -3.4621531706
 H        -5.2712863082       -1.2268766102       -2.2346374242
 H        -6.5969358868       -1.9956826974       -3.0668654003
 H        -6.1933379788       -2.6044487740       -0.5527744195
 H        -7.7704651856       -2.2860880017       -1.1198069519
 H        -5.6288380542        2.0910363519        1.4894195315
 H        -4.3082419884        0.9313783045        1.7678961350
 H        -4.9090500859        1.9489907193        3.1063337853
 H        -8.2393176917       -2.2930954092        1.3531655289
 H        -8.3735484019       -1.3478469042        2.8907998920
 H        -7.2408262763       -2.7288824068        2.6985224722
 H        -4.4336054229       -1.3705410573        1.2821493258
 H        -5.2650270219       -2.8863280706        1.4278047517
 H        -4.8881900298       -1.9597352685        2.8743779704
 H        -6.9991899086       -1.5258561885       -5.4308199303
 H        -7.3816497557        0.0144068247       -6.4174336001
 H        -8.3987940862       -0.7313943490       -5.1883333084
 H        -5.0254245066        1.0977551086       -5.5325302668
 H        -4.8146407702       -0.5052118627       -4.9111362445
 H        -4.7860280191        1.0097260378       -3.7958054872
 H       -10.4599818727        2.1265931235       -4.9813055003
 H       -12.0537663299        2.2462812235       -4.1781629605
 H       -10.5288337149        1.8445708224       -3.2818619715
 H       -10.1693839056        3.7569638768       -5.9363409070
 H       -10.0607811733        5.3165485565       -5.2890490173
 H       -11.6063410430        4.7089485904       -5.6237002618
 H       -15.9276567091        7.5092488867       -1.8171964141
 H       -15.5734726938        9.1169278360       -1.5338053860
 H       -16.5450971897        8.2072239442       -0.3114721902
 H       -12.8760887911        8.7935815133        0.9180240244
 H       -14.6356296179        9.0570928445        1.5968720795
 H       -13.9832223083        9.7622068443        0.2830641744
 H       -13.1420249966        0.2780721563        1.4142383450
 H       -11.7878118690        1.5591819055        0.7642672405
 H       -13.3069415755        1.5993537948        0.3095408275
 H       -14.0879600817        0.7087921947        3.5993755601
 H       -15.1527242081        1.7472817405        2.5759700292
 H       -14.6841655315        2.3146777607        4.0928299488
 H        -5.9714734123        6.1698210588        1.4429189652
 H        -7.4811652110        5.3529359211        0.3414158620
 H        -6.3226804548        4.5140170594        0.9692197658
 H        -6.5887287987        3.8235814631        3.2978704865
 H        -7.3943457558        4.7087505799        4.4856079628
 H        -5.9952048626        5.4697986042        3.7492578109
 Na      -11.0851571526        5.0545321814       -0.4212699883
