117

 C        -7.7471564819        7.8502513093        4.1749637514
 C        -8.2320672594        6.9725807388        2.8438121752
 O        -9.0479164847        7.4514944945        2.1207459428
 C        -7.7064433470        5.5649179672        2.6557268839
 C        -8.9369263384        4.5954188250        2.3439443797
 O        -9.2694187972        4.5872835266        1.1586181790
 C        -9.6516725933        3.7145201220        3.3701236500
 C       -10.4749350063        2.6678027452        2.6370362114
 C       -11.7909205924        2.5175675891        3.2774231066
 O       -12.0402508565        2.5440400671        4.4622104107
 C       -13.1033929910        2.2499856641        2.3470803600
 C       -13.2714439939        3.6994058958        1.6040659053
 O       -12.6985635405        3.8210580451        0.5576620535
 C       -14.1208099337        4.8092009872        2.2791192455
 C       -14.0085306676        6.3366157450        1.8609247713
 C       -14.7918481312        6.5370867490        0.4869376506
 O       -15.6291418807        5.7406699522        0.2630054762
 C       -14.3640618540        7.8269283321       -0.4384296877
 C       -13.1498651771        7.2318378074       -1.2884388265
 O       -12.1574517252        7.0232055888       -0.6221188167
 C       -13.2952105260        7.1174832924       -2.8228219829
 C       -12.1573665110        6.3719296957       -3.6322625291
 C       -12.0700541877        4.8691850401       -3.2775072695
 O       -12.7643363348        4.3035619045       -2.4951128615
 C       -10.8527669515        4.1091590240       -3.8413462469
 C        -9.4907014469        4.2977918908       -3.1266191111
 O        -9.4104780789        4.6268480991       -1.9098893659
 C        -8.1380701510        4.0789017053       -3.8863465876
 C        -7.2721020804        2.8410531830       -3.5005002008
 C        -7.5312689088        1.6184657470       -4.4285570750
 O        -8.1279259607        1.8425770192       -5.4906703477
 C        -6.9435717733        0.1259504253       -4.2550949793
 C        -7.2886969711       -0.2469291030       -2.7908541736
 O        -8.2423960091        0.2372734304       -2.1536356032
 C        -6.4783218287       -1.3429204187       -2.2465142579
 C        -7.0295125094       -1.8480435200       -0.8486453886
 C        -6.7932998107       -0.8545838816        0.2864792014
 O        -6.6876257452        0.3442548522        0.0005833606
 C        -6.3947421307       -1.1969712324        1.8004330709
 C        -6.3369636072        0.1965358275        2.5734525470
 O        -7.1383453321        0.3371200390        3.4674833808
 C        -5.3827416434        1.2398970101        1.9524646750
 C        -7.5351769554       -2.1803518645        2.5871722601
 C        -4.9931152617       -1.8856517314        1.6933952659
 C        -7.7838583588       -0.8353153890       -5.1741311099
 C        -5.3502604978        0.1605396280       -4.6546232047
 C       -11.0925979546        2.6109620521       -3.4784177271
 C       -10.8028515365        4.5855736425       -5.2964671194
 C       -15.6176512660        8.2332310942       -1.1892009582
 C       -13.8875420199        8.9118725396        0.4994668255
 C       -13.0584186822        1.2419744662        1.1293369889
 C       -14.2742550386        1.9100663190        3.2563286913
 C        -6.9735512868        5.6791274142        1.3071330100
 C        -6.8474163009        4.7838426642        3.7441254182
 H        -8.5227862905        7.6432703550        4.8877948721
 H        -7.4894488314        8.8404108885        3.9090905604
 H        -6.6666501616        7.3947650321        4.4472904549
 H       -10.2135346172        4.4566344023        4.0126701737
 H        -8.8307600870        3.3048163737        4.1228782115
 H       -10.1196075431        1.6532247508        2.7298787125
 H       -10.5562561347        2.8899140033        1.6260921435
 H       -13.8855804666        4.6317800767        3.2606300765
 H       -15.2217229227        4.3935059996        2.2313164960
 H       -12.9101800302        6.6613277086        1.9028391032
 H       -14.4587196837        6.7937047544        2.7236119405
 H       -13.4196706693        8.0829723321       -3.2955878945
 H       -14.3463010419        6.6817146154       -2.9374511087
 H       -11.1834362965        6.7363537149       -3.3567725284
 H       -12.4314596510        6.5317720354       -4.7268037069
 H        -7.7006392429        5.0595182557       -3.7108350233
 H        -8.2381450834        3.9508603257       -4.9085674803
 H        -7.5597195533        2.6352467294       -2.5180889751
 H        -6.1849786155        3.2123933471       -3.5428699002
 H        -5.5579954916       -0.8884608368       -1.8807600867
 H        -6.0746159766       -2.1086809539       -2.9352409335
 H        -6.4680075340       -2.7076182447       -0.6300061790
 H        -8.0224593377       -2.3268051573       -0.8833511644
 H        -6.0266219359        2.0350651236        1.5551220066
 H        -4.6828456141        0.7846267653        1.1845275559
 H        -4.7814471281        1.6269065341        2.7884711361
 H        -8.4661750625       -2.1787249099        2.0414952817
 H        -7.6887957258       -1.6943131059        3.5289282669
 H        -7.2130919636       -3.2562534348        2.6689355404
 H        -4.3532164252       -1.3470265639        0.9343423887
 H        -5.1205022997       -2.9145761469        1.3262316949
 H        -4.4818257083       -2.0859467590        2.6748739916
 H        -7.7621403803       -1.8524406445       -4.8696007962
 H        -7.2972236081       -0.5958362267       -6.1132075016
 H        -8.8667445150       -0.5532972110       -5.0260281014
 H        -5.3413751448        0.1072306347       -5.6915996806
 H        -4.7764875224       -0.6810271702       -4.3156227994
 H        -4.8863857764        1.0275441746       -4.2197109083
 H       -10.1907926168        2.1341606299       -3.2362446906
 H       -11.5915608816        2.1538110289       -4.3471197380
 H       -11.6953054839        2.4685810257       -2.5205293956
 H       -10.0245341438        3.8901114211       -5.8681785147
 H       -10.4203760210        5.6903383587       -5.3325921758
 H       -11.7718138648        4.3634973702       -5.7169858886
 H       -16.1913906314        7.3523941374       -1.6880202363
 H       -15.3438333834        8.7694924019       -2.0751726404
 H       -16.2474775042        8.8607435950       -0.6120506144
 H       -12.8102127099        8.9654055113        0.5348940348
 H       -14.3846636592        8.8210748564        1.4352049278
 H       -14.0410642011        9.9776519937        0.2627972077
 H       -12.7279994993        0.3826448569        1.6467997091
 H       -12.6543093656        1.6527853919        0.2601209716
 H       -14.1031113237        0.9049412220        0.9561913687
 H       -14.3957225376        0.9004371940        3.5041092439
 H       -15.2454553374        2.3792902556        3.0885189316
 H       -13.9698929395        2.2290374090        4.2861067938
 H        -6.0736428517        6.1512213131        1.4721806469
 H        -7.5666558572        6.0594030495        0.4075448166
 H        -6.7889126912        4.6961124789        0.9141640837
 H        -6.4849334263        3.7683726081        3.2896059386
 H        -7.3375314378        4.7062516083        4.7350243581
 H        -5.9246423914        5.2643886115        3.8792681247
 Na      -11.0680330406        4.9876074719       -0.4562204746
