117

 C        -7.4435240729        8.1302423680        3.9672568230
 C        -8.1316075873        7.2415294471        3.0572878497
 O        -8.9744907795        7.6929416902        2.2768647737
 C        -7.5707679546        5.7231922398        2.6404837143
 C        -8.8170071075        4.6623558974        2.1807120998
 O        -9.2214159779        4.6474362647        1.0592384315
 C        -9.7068447155        3.8487124321        3.2995650984
 C       -10.5316589590        2.6731600735        2.8315543087
 C       -12.0432044885        2.5375771534        3.4237652396
 O       -12.2164700839        2.3093686550        4.6056028374
 C       -13.2876896778        2.3861474980        2.3946128357
 C       -13.5117290374        3.6393626864        1.5572561107
 O       -12.9835157917        3.8103641139        0.4616278487
 C       -14.0910991410        4.9736098458        2.2333313104
 C       -13.6645804813        6.1948036397        1.4253162744
 C       -14.6365554509        6.5806017195        0.3149274230
 O       -15.4650444698        5.7809588553       -0.0178368652
 C       -14.2472622498        7.8426805118       -0.5616491079
 C       -13.1254916848        7.2991283464       -1.4799336542
 O       -12.0674501221        6.9441944216       -1.0106026673
 C       -13.3586926636        7.1998086634       -2.9992444339
 C       -12.1592790731        6.6263050397       -3.6868291691
 C       -11.9162614214        5.1450395219       -3.1114730415
 O       -12.6332975916        4.7553688133       -2.2089792644
 C       -10.8884234593        4.1210866291       -3.7391346751
 C        -9.4233358759        4.3097143494       -3.2527833120
 O        -9.3200889097        4.8199536369       -2.1771983684
 C        -8.0773357188        4.0563720896       -3.9810039012
 C        -7.4504796759        2.6750483927       -3.5675434340
 C        -7.7536179445        1.5855507017       -4.5629894558
 O        -8.3036095405        1.7190429960       -5.5940206481
 C        -7.1842613792        0.0328154383       -4.1085772856
 C        -7.5350108058       -0.4603816024       -2.5605657121
 O        -8.3677262813        0.0813186872       -1.9088508262
 C        -6.6946532972       -1.5966498825       -2.0248045746
 C        -7.1653918851       -2.0962156955       -0.6209754534
 C        -6.6719663676       -1.0252586226        0.3432306927
 O        -6.6665099221        0.1426652812        0.0049234211
 C        -6.2677545984       -1.3019912239        1.8177036103
 C        -6.4038556671        0.0608302759        2.5772625490
 O        -7.2326323273        0.2095061530        3.4149647762
 C        -5.2391571250        1.1632228086        2.2571636153
 C        -7.1892684176       -2.4409469883        2.3764705294
 C        -4.8143536475       -1.9276699219        1.8979340293
 C        -8.0548995734       -1.0946112914       -4.8153351484
 C        -5.6882620647       -0.0013024276       -4.4259175549
 C       -11.2112264731        2.6179861387       -3.5304249506
 C       -10.8618530503        4.0942179994       -5.3364543927
 C       -15.4569720232        8.2012438503       -1.3468011661
 C       -13.7410128385        9.0779588336        0.2123468180
 C       -12.9740468207        1.0648654747        1.4995773770
 C       -14.6209732808        2.2652523477        3.0740579327
 C        -6.5488904312        5.9431148081        1.4753156213
 C        -6.8355945083        5.1566148632        3.8833393354
 H        -6.7798344691        7.5283551608        4.5507164985
 H        -8.2255966039        8.6398145452        4.6361331139
 H        -7.1710850380        8.9658500388        3.4787736296
 H       -10.2607335455        4.6622205489        3.6744399920
 H        -9.0796190206        3.6219438595        4.1608511378
 H        -9.9754147222        1.7347246099        3.1044019107
 H       -10.6678978879        2.7183402388        1.6801149890
 H       -13.7501845642        5.0052653215        3.3709561476
 H       -15.1002283012        4.8036523785        2.3006950178
 H       -12.6701756766        6.0342565134        1.1614003996
 H       -13.4887067400        6.9307294708        2.2191530499
 H       -13.5563095422        8.3221672245       -3.2906328770
 H       -14.2726921839        6.7251928142       -3.2447012728
 H       -11.1808309952        7.1431468077       -3.3723954093
 H       -12.3211848355        6.4404647615       -4.7518980386
 H        -7.3593389899        4.8026182058       -3.5680847438
 H        -8.1696201291        4.2456812887       -5.1282556154
 H        -8.0242781429        2.4618844164       -2.5953911399
 H        -6.4628594737        2.8844792368       -3.3462367593
 H        -5.6391463274       -1.2771624566       -2.0125075557
 H        -6.5610651229       -2.4731431008       -2.6186459780
 H        -6.9669702962       -3.2490313001       -0.6227699958
 H        -8.2659913439       -2.1472348966       -0.6219187563
 H        -5.5944635505        2.1246744223        1.9513817325
 H        -4.7191240534        0.7000451399        1.4672096230
 H        -4.4755718297        1.1680620923        3.0346987132
 H        -8.2222468005       -1.9960588662        2.4350878410
 H        -6.8658442350       -2.8958642059        3.3747984874
 H        -7.2718469708       -3.1527892913        1.5934608881
 H        -4.2056983170       -1.1553999866        1.4704764781
 H        -4.6826359001       -2.8656705691        1.3709654284
 H        -4.5061653380       -2.2037027269        2.8559956271
 H        -7.5370917969       -2.1208692732       -4.6187214732
 H        -7.8866346863       -0.9133711925       -5.8834584530
 H        -9.0093524860       -1.1206634059       -4.3523014813
 H        -5.7517057306        0.1771908452       -5.5553708371
 H        -5.2714719043       -1.0718933847       -4.2574673477
 H        -4.9866478669        0.5901763647       -3.7712519143
 H       -10.5823553184        2.1746643376       -2.7365115478
 H       -11.1734090325        2.0469046484       -4.4251110388
 H       -12.1598453062        2.5254214296       -3.1394185931
 H       -10.2558075239        3.3158772228       -5.5180090406
 H       -10.5152681327        4.9158953593       -5.8321972906
 H       -11.8507240121        3.6995046566       -5.6640442310
 H       -15.9429569221        7.3300950012       -1.5721369447
 H       -15.3874304821        8.7646779577       -2.2766674009
 H       -16.1107281196        8.7379284770       -0.6605907505
 H       -13.0164683882        8.9761779667        1.0078837913
 H       -14.6185917567        9.6630436756        0.6360959227
 H       -13.1895507980        9.7519836468       -0.4202628072
 H       -12.1266152021        0.5162870169        1.9846520114
 H       -12.7323239460        1.6134103111        0.5011300094
 H       -13.8318456277        0.4027616132        1.4740971167
 H       -14.7353143043        1.3201940203        3.6419601348
 H       -15.4458696330        2.3122861794        2.3502534960
 H       -14.7947373580        2.8821248248        3.9297619414
 H        -5.6712485488        6.5268794026        1.9018730258
 H        -7.0647764124        6.6812680610        0.8185729585
 H        -6.2417024649        5.0593154015        0.7446207271
 H        -6.3279718476        4.2739447929        3.6866000750
 H        -7.4765940888        5.1371565379        4.8058957813
 H        -5.9474038732        5.8631626983        4.1422407666
 Na      -10.9884332866        4.9497707021       -0.4595848129
