117

 C        -7.2153915287        8.1233425812        3.7917494415
 C        -8.2522762275        7.2244056941        3.0285769487
 O        -9.2234713117        7.6663345341        2.3944318447
 C        -7.7438486621        5.7772574435        2.8012209531
 C        -8.9551959998        5.0286300276        2.2898509360
 O        -9.0780591015        4.9396880487        1.0528831785
 C        -9.8610480083        4.2944649130        3.3570188919
 C       -10.7454243711        3.1608745490        2.6955486299
 C       -12.0639484115        2.7888526012        3.4810231832
 O       -12.1066838416        2.4837783588        4.6201010675
 C       -13.2802510811        2.4916139379        2.4239309324
 C       -13.2994093514        3.6978105194        1.4976863717
 O       -12.7270425329        3.6107299670        0.4298918307
 C       -13.7795845793        5.0432457389        2.0266347359
 C       -13.5400462840        6.3872536057        1.2902462941
 C       -14.4074845650        6.5951866280        0.1452615493
 O       -15.4078706919        5.9285560239       -0.1201394527
 C       -14.1348023793        7.8484214840       -0.8855259344
 C       -12.9563287557        7.4207467343       -1.7417753765
 O       -11.8730532037        7.3658509709       -1.1400603972
 C       -13.0390019577        7.1472446768       -3.2982130130
 C       -11.9365152179        6.4332572929       -3.9471265533
 C       -11.7474736234        5.0614970768       -3.3156622596
 O       -12.3451233918        4.7745965195       -2.2909773651
 C       -10.8760778211        4.0278734531       -3.9334257796
 C        -9.4474146111        4.2463931262       -3.3265158740
 O        -9.2988576702        4.9379047312       -2.3062132598
 C        -8.2471900096        3.7659587837       -4.0961715454
 C        -7.7903171619        2.4307714698       -3.4205336370
 C        -8.0362548205        1.2800876271       -4.3532279308
 O        -8.4996957100        1.4454706917       -5.5069289835
 C        -7.5852720979       -0.1351910622       -3.9948808881
 C        -7.8613819621       -0.5744798179       -2.5272960862
 O        -8.6534193799        0.1160595002       -1.9319896194
 C        -7.1615839145       -1.8224671058       -2.0329125101
 C        -6.9238211006       -2.0628265697       -0.4922937029
 C        -6.4256198671       -0.9664955983        0.3968899707
 O        -6.3959684483        0.1949101248        0.0852548687
 C        -6.1482941029       -1.4524161856        1.9039894452
 C        -6.3235649068       -0.1214330280        2.7412327755
 O        -7.3693358422        0.0021331417        3.3965498850
 C        -5.1583522034        0.9539793783        2.7455603201
 C        -7.0939314777       -2.5483504960        2.5135195484
 C        -4.7089098681       -1.9544606968        1.8443304193
 C        -8.2490186988       -1.1606271109       -4.9271472470
 C        -6.0830615861       -0.0809850312       -4.3228028175
 C       -11.2634995050        2.7174347461       -3.2271813106
 C       -10.8933218661        4.0000066088       -5.4586273932
 C       -15.4944472905        8.2935511776       -1.4602945874
 C       -13.6135256259        9.0544761315        0.0105414639
 C       -12.9148755545        1.2258641608        1.6775749363
 C       -14.5597972454        2.2445970644        3.3295217470
 C        -6.6638336935        5.7674709148        1.6666354352
 C        -7.0615389826        5.1890255405        4.0487117760
 H        -6.5261370744        8.4154521934        2.9231803366
 H        -6.5572850156        7.7100448381        4.5668658374
 H        -7.8580387309        8.9472277872        4.1943211099
 H       -10.5658583175        5.0796162870        3.8998842279
 H        -9.1931765906        4.0409711460        4.1436069134
 H       -10.1096741402        2.2818824371        2.6794388827
 H       -11.0019085229        3.3736205954        1.7095788419
 H       -13.4394707644        5.0066501154        2.9619729400
 H       -14.9392039667        4.9659923090        2.1586465305
 H       -12.4475130110        6.6765496512        1.0252477616
 H       -13.7052825958        7.0942881802        2.1160914339
 H       -13.1173382119        8.1141454457       -3.6546911472
 H       -14.0048195042        6.6335558962       -3.5305250191
 H       -11.0282081394        6.9077362793       -3.7561568600
 H       -12.1427670666        6.1151704703       -4.9376527419
 H        -7.3526664861        4.3862500790       -4.1112942678
 H        -8.6004278944        3.6118740642       -5.0665659262
 H        -8.3103374627        2.3070957853       -2.5010498048
 H        -6.6328245857        2.6029512107       -3.2798162063
 H        -6.2737924782       -1.9842098944       -2.6974315116
 H        -7.7281273036       -2.7910811061       -2.2912047909
 H        -6.4322081256       -2.9462464506       -0.4281622220
 H        -7.9174426584       -2.3799548133       -0.1658574566
 H        -5.6649464855        1.9037811502        3.0787499267
 H        -4.5311906586        1.1734071978        1.8727349824
 H        -4.4592827886        0.5143679022        3.4475560563
 H        -7.7704846296       -2.0109797971        3.1196557317
 H        -6.5120752070       -3.1758127438        3.1329420494
 H        -7.6874654413       -3.2494883678        1.8521167515
 H        -4.0786830537       -1.1055809841        1.6732705524
 H        -4.6266563004       -2.7543063893        1.1326164855
 H        -4.3815489089       -2.4534484664        2.8125902588
 H        -7.5594060880       -1.9175431328       -5.0459460124
 H        -8.3415331964       -0.7428833236       -5.8838741045
 H        -9.1960292812       -1.4478964649       -4.4218670731
 H        -5.9695682256        0.7101265442       -4.9902418914
 H        -5.6948255468       -0.9620705178       -4.6429801581
 H        -5.5497155446        0.0345988235       -3.4085011855
 H       -11.2739012823        2.9037167120       -2.1624107518
 H       -10.4767645892        1.9505283298       -3.3950584411
 H       -12.2735136029        2.2515026696       -3.4732466251
 H       -10.3109925779        3.2857530388       -6.0804643221
 H       -10.4924662590        5.0320784659       -5.6902999235
 H       -11.9326878563        3.9919631165       -5.7651508285
 H       -15.7423524563        7.7744091967       -2.4372612929
 H       -15.5213980947        9.3718832370       -1.6822729059
 H       -16.3407116930        8.0546946494       -0.7856923424
 H       -13.1431366416        8.7325918418        1.0024377582
 H       -14.4165083526        9.5574309990        0.4556419968
 H       -12.9389384720        9.8069891436       -0.4647138206
 H       -12.3105223152        0.5260771394        2.2683363422
 H       -12.4048816525        1.5828911449        0.8299192909
 H       -13.9587424506        0.8476462787        1.4777660412
 H       -14.6525216206        1.7090465834        4.2508424676
 H       -15.2239380019        1.7578206007        2.6387172255
 H       -15.0478086409        3.1728246139        3.6060977678
 H        -5.9096774138        6.6083597437        1.6025654169
 H        -7.1316387376        5.8212308801        0.6765680944
 H        -6.2533643831        4.8870152563        1.8023597967
 H        -7.0205605627        4.0793169573        4.0025022147
 H        -7.6806512752        5.4275577636        4.8343627574
 H        -6.0944218607        5.4947772926        4.3549780610
 Na      -10.9305896684        4.7863761956       -0.3443146131
