117

 C        -7.2914541489        8.3505236488        3.6434111704
 C        -8.1655791650        7.3361912764        2.9365784979
 O        -9.3089778972        7.6678856409        2.6407150643
 C        -7.7451683460        5.6462248553        2.8787287971
 C        -9.0040322546        4.9990963435        2.3165537043
 O        -9.3548712304        4.9693325345        1.1541709662
 C       -10.0034772582        4.5543849095        3.3748366401
 C       -10.7115072217        3.3679398347        2.6845190330
 C       -11.9830253196        2.8618469247        3.3855616439
 O       -11.9523589039        2.7401967656        4.6077588370
 C       -13.2677309516        2.5271459936        2.3831867318
 C       -13.2741740124        3.7129845961        1.4566343996
 O       -12.5827007822        3.5461097117        0.4295145117
 C       -13.8154350990        5.1003127026        2.0588412094
 C       -13.4452592084        6.4071968536        1.2311175187
 C       -14.3945778668        6.6535722728        0.0541220989
 O       -15.3148611476        5.9279617821       -0.0898663414
 C       -14.0882961340        7.8975565136       -0.8891312228
 C       -12.8390413296        7.5285032589       -1.8295825594
 O       -11.7136478136        7.4378651302       -1.3323480111
 C       -13.0113788358        7.2580824137       -3.3557588697
 C       -11.9359201653        6.4807717060       -4.0427086485
 C       -11.8278310939        5.0752969988       -3.2831218278
 O       -12.4455389610        4.9473987177       -2.1930949657
 C       -10.8719660185        4.0197816927       -3.9087175593
 C        -9.4402506035        4.3557077141       -3.3800482057
 O        -9.3287038867        4.8446645921       -2.3461211180
 C        -8.1216316729        3.7641454996       -4.0567563069
 C        -7.8963100424        2.3596283783       -3.3579589798
 C        -8.2124105820        1.2133837391       -4.4214981538
 O        -8.7362984439        1.5492116990       -5.4219927653
 C        -7.7289198602       -0.3007126714       -4.0048013216
 C        -8.0731343886       -0.6280214529       -2.4909707066
 O        -8.7827262197        0.0433216121       -1.7917302202
 C        -7.3347424981       -1.8806210608       -1.9810850822
 C        -7.0258537938       -2.1702508358       -0.4921608798
 C        -6.5177599631       -0.9268400807        0.4026105916
 O        -6.1386430705        0.1640087059        0.0773285443
 C        -6.0800725530       -1.4327168689        1.9548465078
 C        -6.3012409557       -0.1386228338        2.9214357329
 O        -7.3849719918       -0.0067560363        3.4235062525
 C        -5.1790193658        0.8264451648        3.0293020733
 C        -6.9370694107       -2.5271378668        2.4881854513
 C        -4.6565444021       -2.0093906013        1.8166214469
 C        -8.3180031688       -1.4856204876       -5.0603815240
 C        -6.0901694790       -0.2229785324       -4.2453649791
 C       -11.1199419939        2.4638521978       -3.3962480135
 C       -10.9599402587        3.8127516521       -5.4245533341
 C       -15.3049385410        8.3101052105       -1.7504659204
 C       -13.6153361673        9.0715669727       -0.0701569245
 C       -12.9228913190        1.1652559328        1.6779928584
 C       -14.4201752851        2.3874769592        3.4360380244
 C        -6.5943062554        5.6611263509        1.8060762975
 C        -7.2455509488        5.0655422338        4.1231648484
 H        -6.9574270851        9.0653014513        2.8845317014
 H        -6.3020168554        7.7408652557        3.7327704376
 H        -7.7103593699        8.6575629815        4.5416436376
 H       -10.8305170971        5.3549715074        3.5669988312
 H        -9.5501281389        4.4329113216        4.2924852175
 H        -9.9460534022        2.6119888447        2.6695938107
 H       -10.9010060376        3.6020949142        1.6749231999
 H       -13.3879371457        4.9804187855        3.0944189447
 H       -14.9260593553        5.1278031552        2.2190283197
 H       -12.4031611152        6.5974907561        0.9902876022
 H       -13.5715406397        7.2483180928        1.9604048316
 H       -13.1193810964        8.3836005922       -3.8083683750
 H       -14.0212713611        6.7363562895       -3.4796645069
 H       -10.8739407117        6.9242910800       -3.7813507684
 H       -12.1385862346        6.1312024435       -5.0682927204
 H        -7.2714214413        4.3499609471       -3.9117578237
 H        -8.2553451410        3.5170478422       -5.0889222530
 H        -8.4189305650        2.2059922589       -2.3899334227
 H        -6.8181457978        2.2618300199       -3.3053377852
 H        -6.4370415329       -1.9596587823       -2.5812018826
 H        -7.9144564172       -2.7018266002       -2.4307779000
 H        -6.2599238809       -2.9886101924       -0.5128543360
 H        -7.9598178545       -2.7025180472       -0.1383568030
 H        -5.6111444904        1.6671868094        3.6722986614
 H        -4.7719584145        1.2844827468        2.1299509703
 H        -4.3471871099        0.2069160172        3.4054476519
 H        -7.7967769919       -2.2320805554        3.0892164306
 H        -6.3129814490       -3.1931303787        3.0878852348
 H        -7.2277384486       -3.2418183064        1.7215817728
 H        -3.9287667032       -1.2812585230        1.4870815160
 H        -4.6975413485       -2.9926505462        1.2566075933
 H        -4.3149774344       -2.3264130522        2.8601812669
 H        -7.6351620956       -2.3737439421       -4.9647537988
 H        -8.2333492037       -1.1885483683       -6.0948019983
 H        -9.3406043901       -1.5597938659       -4.7248755786
 H        -5.9116821253        0.4963755886       -4.9721697067
 H        -5.7517455160       -1.1873208119       -4.4516781221
 H        -5.5687174637        0.0042307397       -3.3731936678
 H       -11.4919045327        2.3837177981       -2.3157115219
 H       -10.2763672623        1.7521710710       -3.5052135909
 H       -11.9372792809        2.1075725308       -3.9869381645
 H       -10.5184929634        2.8289644986       -5.7558422251
 H       -10.2625620526        4.5691408833       -5.9246750457
 H       -12.0979565407        3.9288719445       -5.8512352190
 H       -15.2669329570        7.8490724087       -2.6764245026
 H       -15.2544996857        9.4122384324       -1.9630601574
 H       -16.3523767936        8.0854665587       -1.3707152727
 H       -12.7237314781        8.8702672736        0.5714071752
 H       -14.2890730243        9.3330899834        0.7679223412
 H       -13.4703395121        9.9228040696       -0.7068768540
 H       -12.7131019724        0.3948119696        2.3940791782
 H       -11.9842097321        1.3738996443        1.1796173758
 H       -13.7911372041        1.0001916706        1.1213013729
 H       -14.2172726850        1.8029486742        4.3985239101
 H       -15.1897217431        1.7787788967        3.0126370352
 H       -14.8580346325        3.2822971015        3.7776120904
 H        -5.8266517649        6.4851075358        1.7729190684
 H        -6.9986556974        5.7848043353        0.8508708904
 H        -6.0959733371        4.6737605233        2.0028462703
 H        -7.2969867757        3.9903065226        4.1097043257
 H        -7.7268798537        5.3921316858        5.0711999189
 H        -6.1045819665        5.3078455900        4.3145371977
 Na      -10.8655523592        4.8512638067       -0.4603133096
