117

 C        -7.5132110109        9.3698148313        2.4097143913
 C        -7.7860611030        8.2031303200        3.5368724838
 O        -7.8775143186        8.4884424959        4.6832299333
 C        -7.5719736493        6.5395698523        3.1873838705
 C        -8.8926210858        5.9769153873        2.4816963536
 O        -9.0677588289        6.0209208659        1.2877467746
 C       -10.1932944592        5.4436736189        3.2332356168
 C       -10.7525712603        4.0327484465        3.3107418370
 C       -12.2778897631        4.0875607966        3.4695126326
 O       -12.8406807226        4.7737507759        4.2580920056
 C       -13.2730570351        3.3722864991        2.3138531347
 C       -13.2534577284        4.3669994081        1.1674147481
 O       -12.3087522440        4.3106246088        0.4272807860
 C       -14.3916648644        5.5307043096        1.0622579515
 C       -13.8975524790        6.9421710702        0.5848652908
 C       -14.1438835911        7.1740406125       -0.9424357219
 O       -15.0174300036        6.7255732745       -1.6084083404
 C       -13.0795391555        8.2439515515       -1.6598395745
 C       -12.0426757026        7.4547867648       -2.3339630030
 O       -10.9780065005        7.2649807224       -1.7038129119
 C       -12.2606072381        7.0213515841       -3.7927722650
 C       -11.3397892384        5.9328704427       -4.2551270669
 C       -11.6544551700        4.6952105678       -3.4185955871
 O       -12.1815198046        4.8988727221       -2.2798559327
 C       -11.2487024122        3.1569171299       -3.9331479393
 C        -9.6895266459        3.1934695717       -3.2750655968
 O        -9.4448954583        3.4818894229       -2.1983022286
 C        -8.7427753857        2.5951419276       -4.3932933555
 C        -8.0822133967        1.3858997067       -3.9365789026
 C        -8.8396071356        0.0570196533       -4.2186888551
 O        -9.6602975104        0.0289841314       -5.0913763199
 C        -8.3820150678       -1.3505410092       -3.3847369480
 C        -8.8733512842       -0.9640907248       -1.8789038278
 O        -9.3855578902        0.0968548047       -1.6398839466
 C        -8.6904702499       -2.0438528339       -0.7532551852
 C        -8.0231807274       -1.4416790636        0.5456057485
 C        -6.4431187220       -1.8757871235        0.6487015900
 O        -5.9993050339       -2.3228676582       -0.3965799672
 C        -5.6031935536       -1.7677753773        1.9293217169
 C        -6.2067447426       -0.7388038274        2.9137526804
 O        -7.1959005276       -0.0647656696        2.6933436285
 C        -5.5501683433       -0.5193126448        4.3811473739
 C        -5.9142681859       -3.1366304114        2.7127236907
 C        -4.0116252657       -1.7157401327        1.7313861216
 C        -9.0503937034       -2.6280441309       -3.9872431948
 C        -6.8997096074       -1.6089715104       -3.3673535189
 C       -12.0637431400        2.0598379884       -3.3669316998
 C       -11.3580678651        3.0008748298       -5.4971782643
 C       -13.8520618383        9.1407736846       -2.6962824924
 C       -12.3458159208        9.3017738665       -0.7230522452
 C       -12.6308571116        1.9049041755        2.0119417843
 C       -14.6660246552        3.1957550322        2.8360260073
 C        -6.4784711455        6.4350702333        2.1699074754
 C        -7.2643310961        5.8445476085        4.6617119192
 H        -8.4110859420       10.0248100486        2.5290618503
 H        -7.5238743424        8.8684473769        1.4967826226
 H        -6.5397427932        9.9029835211        2.3180137108
 H       -10.9010317873        6.0368744975        2.7234577474
 H       -10.2051147237        5.9175793795        4.1025073284
 H       -10.4180884287        3.3318962889        4.0599498865
 H       -10.5093630039        3.5804864609        2.2768004924
 H       -14.6149734770        5.5596581027        2.1643670655
 H       -15.1046469022        5.0146056769        0.3975494424
 H       -12.8880536332        7.0866343101        0.8752643620
 H       -14.5209340989        7.7435144859        1.0014432111
 H       -12.1141795876        7.7973149058       -4.5306550917
 H       -13.3266566035        6.6761212112       -4.0138363763
 H       -10.3467687738        6.0921963887       -4.1741799520
 H       -11.4563912481        5.8650669234       -5.3419059086
 H        -7.9481321271        3.3802670463       -4.4405609652
 H        -9.2319188068        2.5333789497       -5.4291420983
 H        -7.6947393473        1.3080211248       -2.8479836581
 H        -7.2534997898        1.0544118639       -4.4887574028
 H        -8.0049988180       -2.7720697872       -1.2562119652
 H        -9.7837676482       -2.3989791804       -0.5865302357
 H        -8.3254847282       -2.0932009801        1.3963933205
 H        -8.1473747374       -0.4611773883        0.7100972066
 H        -4.9199672272        0.3218754292        4.3643608609
 H        -4.9297897697       -1.3588781135        4.8102091465
 H        -6.4520106408       -0.2111496640        4.8914136160
 H        -6.8344125441       -3.6240669140        2.3674808603
 H        -5.7987399170       -3.1479869347        3.8536655290
 H        -5.2266804920       -3.9170614814        2.3914269007
 H        -3.9113739714       -0.6011375870        1.5532039560
 H        -3.5298522209       -2.3803831718        0.9803999557
 H        -3.5253831147       -1.9788425809        2.6279597213
 H        -8.9843213368       -3.5594131108       -3.4062594099
 H        -8.5341724746       -2.6127561755       -4.9956477799
 H       -10.1542694404       -2.4384421477       -3.8921342362
 H        -6.6396398319       -1.6518580392       -4.4741580000
 H        -6.5357342026       -2.5021017049       -2.7684386063
 H        -6.2902878309       -0.7386177619       -2.8498031310
 H       -12.1822765785        2.0964870309       -2.3190561086
 H       -11.6029732496        1.1400461701       -3.6501932365
 H       -13.0330502614        1.8683921071       -3.8479752761
 H       -11.0405356185        2.0955252861       -5.8928785655
 H       -10.8372340793        3.7428728339       -5.9954293151
 H       -12.3785993805        3.0982244663       -5.6799341221
 H       -13.8614963480       10.2602433396       -2.4966379433
 H       -14.8416974011        8.8216053783       -2.6446115190
 H       -13.5249431613        8.8889649652       -3.6392841695
 H       -12.9579094775       10.1531714502       -0.6488153443
 H       -11.5246601558        9.6460567822       -1.3582747921
 H       -12.2215445944        9.0323613323        0.3079198624
 H       -13.1529703754        1.2965546160        2.6986901993
 H       -11.5552178068        2.0127813000        1.7578440723
 H       -13.0180200800        1.5824956845        1.0065931696
 H       -14.9506128464        2.3272293786        3.3494900269
 H       -15.3340527586        3.3404071834        1.9271410682
 H       -14.9874260759        3.9785224884        3.5949626912
 H        -5.6966830495        7.1533679716        2.4644837810
 H        -6.8823117707        6.4128124990        1.2040847309
 H        -5.9693155069        5.6132223706        2.0943428351
 H        -8.0058993703        5.0408752593        4.8873387156
 H        -7.4165912756        6.4353017890        5.5061470684
 H        -6.2796257953        5.6186575805        4.7378226641
 Na      -10.5677920931        5.2177409347       -0.4602385263
