117

 C        -8.0334801072        9.2252744162        2.2683469175
 C        -7.7607465174        8.3251361335        3.5980174720
 O        -7.6067751735        8.5863173345        4.7428045428
 C        -7.6035613050        6.6402001412        3.2030506903
 C        -8.9572546746        6.1616269069        2.4987403204
 O        -9.0967448990        6.0802580886        1.2474571841
 C       -10.1768939653        5.8529362113        3.4332139488
 C       -10.8155678184        4.4203049856        3.0860462045
 C       -12.4006819115        4.5081729929        3.2524397284
 O       -12.9584101389        5.3303787623        3.8949655027
 C       -13.4162066330        3.5135846041        2.3068329271
 C       -13.2779913768        4.5065194214        1.1358403473
 O       -12.1594066425        4.5775295714        0.6142940011
 C       -14.3917325475        5.5469665010        0.7005187002
 C       -13.7303375251        6.8985373159        0.4908208698
 C       -13.9992062507        7.3486397232       -0.9814563243
 O       -14.8836145777        6.8690460653       -1.6444969189
 C       -12.9101260389        8.4061353018       -1.7096139172
 C       -11.8842283876        7.4508728127       -2.4140588904
 O       -10.9703348935        6.9441781416       -1.8125986958
 C       -12.1492547729        7.0346546307       -3.8645117091
 C       -11.2238696393        5.7057113232       -4.1445756762
 C       -11.6887387246        4.4948042753       -3.3080971770
 O       -12.4442239723        4.5807715958       -2.3976813762
 C       -11.1967285563        3.0561089902       -3.8894927295
 C        -9.7289804084        2.9471587411       -3.4875677187
 O        -9.4405184236        3.5561206427       -2.3660059974
 C        -8.5501384915        2.3492421325       -4.3762313713
 C        -7.9179305331        1.0595945628       -3.8375444529
 C        -8.7964852585       -0.2564836568       -4.0622965869
 O        -9.7182914672       -0.0819516695       -4.8075854968
 C        -8.4858307850       -1.4940761508       -3.2973100770
 C        -8.9270751606       -1.0700612844       -1.7679049672
 O        -9.2915582896        0.0702023334       -1.5468072429
 C        -8.8994786952       -2.0372872019       -0.5956995417
 C        -8.1113883019       -1.4782858634        0.6078995454
 C        -6.7432256103       -2.1597017451        0.7787776117
 O        -6.1959653119       -2.8924222130       -0.0572288290
 C        -5.8200897711       -1.9303492208        2.0430227265
 C        -6.2229040044       -0.8385922404        3.0839294055
 O        -6.9235717897        0.1166851760        2.7469803894
 C        -5.4997187694       -0.7082207311        4.4611987375
 C        -5.5686409130       -3.3835253613        2.6101444634
 C        -4.3976942946       -1.3533582854        1.4912208419
 C        -9.3813532425       -2.6522897679       -3.9548745797
 C        -6.8400469373       -1.7158159354       -3.3797641340
 C       -12.0556770406        2.0241621400       -2.9946515081
 C       -11.3887000408        2.9706291323       -5.4111562512
 C       -13.7243215448        9.3197137393       -2.5861779669
 C       -12.1821538621        9.1411454151       -0.5317046079
 C       -12.8450904528        2.1540638240        1.7685043784
 C       -14.7586000826        3.3881145216        3.0051355885
 C        -6.5033436335        6.6252445538        2.1835347523
 C        -7.2425753055        5.7766097411        4.3939422384
 H        -8.0358266217       10.2886164124        2.5225599665
 H        -8.8047789468        8.9105946639        1.4607128100
 H        -7.1082883221        8.9619470676        1.7199656144
 H       -10.8784494851        6.7599895980        3.2713983537
 H        -9.9837476338        6.0080225987        4.6005697932
 H       -10.4346197030        3.6652944494        3.7627123678
 H       -10.6235856779        4.0800597991        2.1200292537
 H       -15.2247494155        5.5032043453        1.4807334359
 H       -14.6569698064        5.3242342567       -0.3265243682
 H       -12.5884022869        6.8574804948        0.4066760977
 H       -14.0520880909        7.5809437579        1.2964950500
 H       -11.7661730097        7.8098428611       -4.5987798754
 H       -13.2143074931        6.9474042142       -4.1387130733
 H       -10.0428266435        5.8829489635       -4.0205189484
 H       -11.2396490758        5.5916182756       -5.2604473914
 H        -7.8164105455        3.1345843667       -4.4247347568
 H        -8.9615937178        2.1874669968       -5.3228213220
 H        -7.6028974295        1.0005910744       -2.8617819368
 H        -6.9376186672        0.7801586472       -4.3960590438
 H        -8.6307017263       -3.0247259552       -0.9651298017
 H        -9.8707336914       -1.9546702794       -0.1478441014
 H        -8.6240392661       -1.5243610025        1.5503341816
 H        -7.7701850601       -0.3762763049        0.3903981786
 H        -4.4276850353       -0.6580889138        4.1819919968
 H        -5.4789964768       -1.6687817532        4.8638760205
 H        -5.8801858906        0.1269383251        5.0713660296
 H        -6.4770286160       -3.7657154344        3.1098760149
 H        -4.7745316519       -3.3813238907        3.3085172378
 H        -5.3034516878       -4.1954398354        1.9129072196
 H        -4.5390425946       -0.3908082147        1.1447580831
 H        -4.1514457463       -2.0560860944        0.7406758175
 H        -3.5363393238       -1.4769224981        2.1720672648
 H        -9.1314321392       -3.6924347733       -3.6823098749
 H        -9.1714344126       -2.4684909821       -4.9763069295
 H       -10.3599762480       -2.5175391179       -3.6068384568
 H        -6.6983933746       -2.2060090587       -4.3335823381
 H        -6.4441203402       -2.2524009276       -2.5164605460
 H        -6.2323339179       -0.8647428561       -3.3731958412
 H       -12.0773650833        2.3340497885       -1.9279408534
 H       -11.8524309072        0.9630268564       -3.0992661941
 H       -13.0136894756        2.0375577402       -3.4024772416
 H       -11.3563149582        1.8205004483       -5.5984014184
 H       -10.5760276997        3.3930665789       -6.1164484389
 H       -12.3560516151        3.4249596340       -5.6779226888
 H       -14.3538745411        9.8865303197       -1.9896744902
 H       -14.3732599171        8.6687973220       -3.2532301262
 H       -13.0430079675        9.8942989661       -3.2620404426
 H       -12.7282093273        9.2149722465        0.4225957804
 H       -11.8913831893       10.1729488416       -0.8148188317
 H       -11.3762233879        8.4418840164       -0.3102286410
 H       -13.5089765375        1.4168506463        2.1902937547
 H       -11.7801906383        2.1637414576        1.8081016124
 H       -13.0570138661        2.0380933612        0.7471878131
 H       -14.9628483600        2.3349947802        3.3952120897
 H       -15.5832905464        3.5613306259        2.3587225181
 H       -14.8590371428        3.9390387796        3.9108779551
 H        -5.6794642834        7.2241253752        2.4624937050
 H        -7.0086878537        6.8241622303        1.1716700919
 H        -5.9614569991        5.6083325298        1.8802463496
 H        -7.9575859061        5.6983840606        5.1655069055
 H        -6.3390201023        6.2472413262        4.9163470617
 H        -6.6243239095        4.9236545597        4.1071707160
 Na      -10.2898807986        5.2499873753       -0.7315646634
