117

 C       -12.5140802152       -2.1324288708       -8.1180594946
 C       -11.4512916706       -2.0206557314       -6.9070673482
 O       -11.3233037030       -2.9953366531       -6.1862426539
 C       -10.5928439727       -0.7115013594       -6.6383853934
 C       -10.9411765255       -0.1230340760       -5.2710938349
 O       -11.4032384259        1.0045678131       -5.1527762382
 C       -10.9099802525       -0.9704307160       -3.9654208544
 C       -11.2388996695       -0.2446283271       -2.6836603082
 C       -11.2756613163       -1.1572842325       -1.4427270898
 O       -12.0169251116       -2.0849316984       -1.3339627208
 C       -10.1331597958       -1.0990615088       -0.3408799689
 C       -10.5595149486        0.0073081898        0.7069274226
 O       -10.6134832914        1.1543715258        0.2725392452
 C       -10.8794922786       -0.1629731832        2.1531676508
 C       -12.1249872700        0.6613857755        2.5926750391
 C       -11.9099119166        2.1767388085        2.6738308093
 O       -10.7888313385        2.6151859809        2.9049107903
 C       -13.0848441689        3.1284679106        2.5808905794
 C       -12.7793654520        4.5493320366        3.1776234218
 O       -11.7153318763        4.7625175985        3.7347623050
 C       -13.8499699944        5.6593636884        3.0782914322
 C       -13.5605775787        6.7809844768        2.0097534368
 C       -12.1816777570        6.7167281563        1.3878187106
 O       -11.6312064999        5.6524919604        1.3237611221
 C       -11.5780641272        8.1466755807        0.7707109758
 C       -10.0178709252        7.9963612973        0.3540427402
 O        -9.4127321629        7.2203587512        1.0051602436
 C        -9.3814343250        8.9393387990       -0.8082329627
 C        -7.8317490772        8.6260395705       -0.8400732368
 C        -7.1301832042        9.2009013111        0.3482698902
 O        -7.6712076986       10.0190512571        1.0711667440
 C        -5.6473831322        8.7776720875        0.5780198962
 C        -5.7923714664        7.2748324996        1.2848152433
 O        -5.8479208721        6.2578068653        0.5927381850
 C        -6.0398357159        7.2837858945        2.8696854653
 C        -5.7410364458        5.8362529325        3.3749957066
 C        -6.8376046635        4.8917499616        2.7239534679
 O        -7.9500275910        5.3045801427        2.8263528592
 C        -6.5022381370        3.4120573114        2.0860474402
 C        -7.0877610811        3.5609713227        0.6312972614
 O        -8.2352260029        3.9150191115        0.4503496713
 C        -6.3234943436        3.5760232909       -0.6394506877
 C        -4.9627569920        3.0567702320        2.1078261517
 C        -7.2722726977        2.3312131423        2.9366199288
 C        -4.7853414907        8.6302235261       -0.7755204722
 C        -4.9220866350        9.8209654288        1.4987255304
 C       -12.5617614544        8.5336715015       -0.3071778926
 C       -11.4824559972        9.2231964770        1.8361492648
 C       -13.4051879400        3.3308586203        1.0115433344
 C       -14.4376251982        2.6049150451        3.3269769008
 C       -10.0184513080       -2.5247688567        0.3389728354
 C        -8.6428368029       -0.7538116742       -0.8264549226
 C        -9.2067361711       -1.2977106091       -6.6286959779
 C       -10.7849500933        0.3381359516       -7.8175551737
 H       -12.9896207426       -3.1088635847       -8.1179938931
 H       -12.0120391169       -1.8718858665       -8.9662416551
 H       -13.1990296181       -1.4251330157       -7.8008437762
 H       -10.0611242329       -1.5580542467       -3.8800164890
 H       -11.6267512280       -1.8503622546       -4.1166738763
 H       -12.2477975466        0.1874026323       -2.8516414328
 H       -10.4413335586        0.5159777650       -2.4645591957
 H       -10.0481124029        0.3215280638        2.7243657352
 H       -11.0915546878       -1.1895570032        2.5483674251
 H       -12.3528739135        0.3721473425        3.5659791263
 H       -13.0224307179        0.4784728910        1.9458873685
 H       -13.6805806641        6.1087260049        4.1331711183
 H       -14.8447197057        5.2908852001        3.0314357718
 H       -13.6502546519        7.7032448733        2.5628323767
 H       -14.4290166423        6.6910443931        1.3471859460
 H        -9.5583099910        9.9814522314       -0.5354124003
 H        -9.8570139785        8.7028696912       -1.7546573788
 H        -7.3644002232        9.1051104514       -1.7337528039
 H        -7.4944201775        7.5888465314       -0.9554101620
 H        -7.0674544838        7.5639130110        3.0461900861
 H        -5.4949757424        7.9763136494        3.4152113080
 H        -5.8514275371        5.6578806504        4.4154378547
 H        -4.7358789697        5.6123431665        3.1366813804
 H        -6.1106280862        2.5601206503       -1.0464445352
 H        -5.3534503652        4.1203587937       -0.6623911276
 H        -6.7971864257        4.0497188621       -1.5026870635
 H        -4.6293169980        3.1635558554        3.2246137147
 H        -4.4180927428        3.8106967124        1.5876526759
 H        -4.7553700870        2.1248557756        1.6919915519
 H        -8.2802322832        2.7195645145        3.0402868072
 H        -6.8615661332        2.2792526944        3.9279168086
 H        -7.1584390422        1.3467515952        2.5823067138
 H        -4.7293518526        9.6557891102       -1.2115580849
 H        -5.3045662302        7.9793381606       -1.4558353001
 H        -3.7905490953        8.3901514492       -0.5933928154
 H        -4.1375010636        9.3612918152        1.9704921028
 H        -5.6005495046       10.2112753680        2.2374410588
 H        -4.5173338185       10.5772148093        0.9361484792
 H       -13.3892126081        9.0066574485        0.2093772873
 H       -12.9419625419        7.6589026063       -0.9306357692
 H       -12.1986627965        9.2550414891       -1.0021754691
 H       -10.9200566063        8.8109139100        2.6578237276
 H       -12.4445455895        9.7317502116        2.1029262035
 H       -10.9546636757       10.0643216844        1.2561520156
 H       -12.4517536315        3.5160313010        0.4663069270
 H       -14.0661678976        4.2494595164        0.8666723842
 H       -13.8461361017        2.4579642507        0.6558649696
 H       -14.6505221272        1.6111508636        2.8324648782
 H       -15.3862002821        3.1160747678        3.2349431771
 H       -14.1110092317        2.3340071750        4.3205977449
 H       -10.2493675274       -3.3852232173       -0.2153035788
 H       -10.6940693877       -2.5080169905        1.1728221835
 H        -9.0997641222       -2.6706030621        0.7786700224
 H        -8.0745928717       -0.8813772453        0.1027288348
 H        -8.6832577415        0.2726622318       -1.1221640538
 H        -8.2874945740       -1.3229910055       -1.6805792916
 H        -9.1879799239       -1.8813936882       -5.7330821894
 H        -8.3612481291       -0.5286029022       -6.4997370518
 H        -9.1314577689       -1.9709103084       -7.4938288257
 H       -11.7761958567        0.7268967629       -7.8146080810
 H       -10.7321476360       -0.2009109055       -8.7328307052
 H       -10.1485277235        1.2277252503       -7.7561326764
 Na       -9.9380528821        4.4474473198        1.9721170006
