117

 C        -7.9664039317        9.7636821429        2.1228158674
 C        -7.8913753437        8.4157685268        2.7472468848
 O        -7.8731014305        8.2974893756        4.0326838742
 C        -7.6381062499        7.1245095737        1.8550456770
 C        -9.0496087731        6.3883136637        1.7940783553
 O        -9.2601878278        5.4912582155        1.0222474377
 C       -10.1828317713        6.8840729320        2.7869283344
 C       -11.2119315534        5.7163850206        3.0284794494
 C       -12.6051630391        6.0981027523        2.7332541403
 O       -13.0466054683        7.1801835326        3.0328201298
 C       -13.5043174392        4.9364425671        2.1371336794
 C       -13.3754035006        4.6652772752        0.6356181270
 O       -12.7918074324        3.6293913849        0.3493169181
 C       -13.8455974830        5.7621394219       -0.4172303184
 C       -13.1693080867        7.1555130810       -0.1642398073
 C       -13.2979760097        8.0444952644       -1.3673155977
 O       -14.4165470674        8.1984018053       -1.7621346609
 C       -12.0234785104        8.5880897244       -2.3020443917
 C       -11.2650823221        7.3231187113       -2.6746878014
 O       -10.6096429961        6.7475890198       -1.8055873148
 C       -11.1875930258        6.8188362020       -4.1244507534
 C       -10.4441840600        5.3980583444       -4.0091305268
 C       -11.2421705162        4.3467138314       -3.3658755388
 O       -12.3155361574        4.5905241139       -2.8840255102
 C       -10.7822628965        2.7589438632       -3.2919476265
 C        -9.3116271248        2.4869414436       -2.9360143123
 O        -8.8765513679        3.2495964114       -1.9504431294
 C        -8.3906971177        1.6123519687       -3.6586255620
 C        -8.0278240402        0.1928105011       -3.0032388484
 C        -9.1211887108       -0.7862013392       -3.1939844209
 O       -10.0572003186       -0.6578856584       -4.0060749605
 C        -9.2656435692       -1.8987817791       -2.1692085187
 C        -9.3348070043       -1.3794394951       -0.6303585737
 O        -8.8889884023       -0.2938750536       -0.3181795491
 C        -9.6681305270       -2.5242770818        0.4242846362
 C        -8.8608338354       -2.5503575903        1.8211481402
 C        -7.3942494715       -3.0475388388        1.6534777085
 O        -7.3114260648       -4.2604408591        1.5912427488
 C        -6.0473751348       -2.1090285189        1.6234982481
 C        -5.9567034840       -1.4433034705        3.1541971656
 O        -5.4125858316       -0.3737678533        3.2622952479
 C        -6.4825347174       -2.2944328102        4.3310332502
 C        -4.8612236229       -3.0313122739        1.3941685666
 C        -5.9420076002       -0.9385652982        0.7055482550
 C       -10.3823673873       -2.8778652631       -2.5292746096
 C        -7.9320630504       -2.6244279777       -2.1307974504
 C       -11.6531955018        2.0415199723       -2.2195530404
 C       -11.2549208075        2.2531955271       -4.6495223307
 C       -12.6277069543        9.4385676605       -3.4744487966
 C       -11.0325467675        9.4748297053       -1.4588429555
 C       -13.3088693846        3.5866357752        3.0233821203
 C       -15.0515975336        5.3950127511        2.1856979214
 C        -6.8512723859        7.3331529294        0.4807780721
 C        -6.6792033594        6.1088463356        2.7472819042
 H        -7.9999456345       10.5372766930        2.8605057634
 H        -8.9919266751        9.9314030286        1.5802062759
 H        -7.1397232112       10.0970307904        1.5193098193
 H       -10.8635932219        7.7417703138        2.4390694341
 H        -9.6721533273        7.2581268053        3.8115770969
 H       -11.3126370050        5.6346067648        4.0722283257
 H       -10.9147493939        4.8625848823        2.5540578485
 H       -14.9143625243        5.8826780954       -0.3763188755
 H       -13.8369691036        5.5259668404       -1.4144067820
 H       -12.1017302536        7.0994937884        0.0473661486
 H       -13.5571473434        7.5867963066        0.7947141112
 H       -10.6131760332        7.6818396082       -4.6524833318
 H       -12.0792080450        6.6790074781       -4.5383699705
 H        -9.6258147572        5.5571643725       -3.3078503229
 H       -10.1053190613        5.0341217473       -5.0582351419
 H        -7.6132970264        2.1280555421       -4.2281391511
 H        -9.0091101466        1.1460406635       -4.4702383515
 H        -7.8212880054        0.3740177210       -1.8528193999
 H        -7.0641989541       -0.0930880196       -3.3370395570
 H        -9.5767162938       -3.5874054941        0.0557029295
 H       -10.8256928266       -2.4749713426        0.4262958068
 H        -9.2229833000       -3.5460249231        2.3020870500
 H        -9.1230819619       -1.7408912392        2.4646897327
 H        -6.1886822180       -1.7927804106        5.2951589533
 H        -6.0335995107       -3.2742976753        4.0470545176
 H        -7.5380010765       -2.4589263991        4.3285243996
 H        -4.9863110135       -3.9651245847        1.9570278415
 H        -3.9005340453       -2.5691790864        1.7174101996
 H        -4.7162750371       -3.3970053394        0.3428317186
 H        -6.8534624207       -0.3415643738        0.9139895994
 H        -5.9542592400       -1.3310176698       -0.3224775898
 H        -5.0012492681       -0.3816866356        0.7802868978
 H       -10.3571761174       -3.8216457790       -1.9189334397
 H       -10.1437982507       -3.2605818984       -3.5549604803
 H       -11.4843172947       -2.5446292369       -2.4551007735
 H        -7.6006337684       -3.3307323379       -2.9600274102
 H        -7.7599095664       -3.2460586536       -1.1823301251
 H        -7.0977837104       -1.9394302056       -2.0136155466
 H       -11.4777034188        2.4322786393       -1.2005911874
 H       -11.4662918707        0.9448341307       -2.1799003680
 H       -12.7052504786        2.3923461677       -2.3674324350
 H       -11.0182434350        1.2125552899       -4.7359947113
 H       -10.6559160406        2.6856724781       -5.4219529908
 H       -12.2563786156        2.4177964269       -4.8388195547
 H       -12.6683331757        8.9711210882       -4.4424920655
 H       -12.0159304449       10.3272528113       -3.6143181483
 H       -13.6065225970        9.8394784917       -3.2071858442
 H       -11.4145286770       10.4922825840       -1.3085859613
 H       -10.3368793385        9.6721719728       -2.1562939873
 H       -10.7172930978        9.0915692980       -0.4578479958
 H       -12.6018793570        2.9037162356        2.4713238291
 H       -14.2477563284        3.0813837469        3.1998891177
 H       -12.7673500809        3.6838974321        4.0373922125
 H       -15.3194850309        5.6286411509        3.1906624532
 H       -15.6345713474        4.7293217025        1.5647873381
 H       -15.1938443709        6.3500593357        1.6358195453
 H        -5.9820962133        7.8530997096        0.7871762748
 H        -7.5771128024        7.8245550917       -0.2636926216
 H        -6.5803510025        6.3869018215       -0.1383513498
 H        -5.7061850940        6.4337378545        2.7749698811
 H        -6.6280120897        5.1612709612        2.2851680971
 H        -7.1490925704        6.1370723094        3.6714739346
 Na      -10.6700288345        4.8064112887       -0.7133679326
