117

 C        -7.8595257351        9.8246003152        2.0787271799
 C        -7.7623440764        8.4279150172        2.7265965375
 O        -7.9563339132        8.2793794403        3.9073866041
 C        -7.6326764599        7.1198478552        1.9478613780
 C        -9.0974291893        6.4142692857        1.7240962376
 O        -9.2844203499        5.5959502849        0.8325950503
 C       -10.0759554682        6.7585367277        2.7697439203
 C       -11.1535086254        5.6615483436        3.0163277715
 C       -12.6146049099        6.1903819677        2.7509382719
 O       -12.8759506512        7.3406673110        2.9183946570
 C       -13.6417113003        5.1244652253        2.1730946304
 C       -13.3650454979        4.8522664477        0.7078434842
 O       -12.8218245205        3.8435358955        0.2648920934
 C       -13.6401902780        5.8675404910       -0.3926766407
 C       -13.0304387476        7.2090744441       -0.1672504780
 C       -13.2732898241        8.0481669824       -1.4001264895
 O       -14.3723998554        8.3245159681       -1.8018224664
 C       -12.0359699313        8.6065640061       -2.3484292079
 C       -11.1263172607        7.3064487675       -2.7068536944
 O       -10.6603770653        6.7291063211       -1.7469087107
 C       -10.9438646522        6.6104194092       -4.1305204638
 C       -10.2009749278        5.3251089841       -4.0358806413
 C       -11.2225693460        4.2341572684       -3.3621883121
 O       -12.2593854939        4.6450468654       -2.9058696648
 C       -10.8258288412        2.7027288694       -3.4033777337
 C        -9.3462498857        2.5789878419       -2.9493488851
 O        -9.0333099741        3.2020151405       -1.8772955220
 C        -8.2461554682        1.5536049081       -3.6988593648
 C        -8.0691567880        0.1936773996       -3.0425493157
 C        -9.3012138745       -0.7060277322       -3.0203491202
 O       -10.0244026885       -0.6323470659       -3.9406352102
 C        -9.2654305545       -2.0919024653       -2.0271733567
 C        -9.3667270215       -1.5313346040       -0.4374334576
 O        -9.0105956109       -0.3768678931       -0.2363621314
 C        -9.7279174253       -2.5501331552        0.5799899001
 C        -8.8922570345       -2.4789589418        1.8329562915
 C        -7.4960250090       -3.1024600079        1.6441276468
 O        -7.2618502127       -4.3128572122        1.5470118598
 C        -6.2426035959       -2.0880019089        1.7396133569
 C        -5.8897351610       -1.6086252270        3.1865117212
 O        -5.2812139632       -0.5297570514        3.3186393693
 C        -6.4291794838       -2.3430994222        4.3118879642
 C        -4.9134454915       -2.9666152448        1.4271212351
 C        -6.1042543035       -0.8190088138        0.7567705647
 C       -10.3949028455       -3.0543156861       -2.4415464775
 C        -7.9515883686       -2.7674204504       -2.1683464302
 C       -11.6928811145        1.8326471903       -2.4350001788
 C       -11.1431764618        2.2356907362       -4.8259620899
 C       -12.6397961312        9.2462311598       -3.5467847384
 C       -11.0776877269        9.5568813706       -1.5026310020
 C       -13.3671436093        3.9286199179        3.0663926776
 C       -15.1070286780        5.5583854339        2.4369583998
 C        -7.1737652170        7.2891607829        0.5253973883
 C        -6.7286294555        6.2563909444        2.6933328781
 H        -8.3349358679       10.6712870715        2.6479258827
 H        -8.4934792451        9.7334011334        1.1228653720
 H        -6.8297885787       10.2591158759        1.7811930201
 H       -10.6717013951        7.6857310615        2.5147847118
 H        -9.4681453470        7.0419993576        3.6692214333
 H       -11.0563974470        5.3435911121        4.0744750268
 H       -10.9808702732        4.9172706812        2.2963744417
 H       -14.7620020610        5.8793774423       -0.5203607934
 H       -13.5031633930        5.5307840963       -1.3838367607
 H       -11.9423353276        7.0604105377        0.0843967628
 H       -13.3904384981        7.6904763841        0.7981594785
 H       -10.4505343554        7.3808854252       -4.6380567902
 H       -11.8649443786        6.3562383308       -4.6715424722
 H        -9.1916611065        5.4381631930       -3.5004620963
 H       -10.1743865711        4.9603082538       -5.1255389842
 H        -7.2611802317        2.0375930525       -3.7525815221
 H        -8.4910360110        1.3405184684       -4.7416357656
 H        -7.6780203364        0.5056620403       -2.0990159555
 H        -7.1569016687       -0.2635175252       -3.4981838850
 H        -9.9523926480       -3.5733837640        0.3029744782
 H       -10.7481087844       -2.0936154224        0.7250587341
 H        -9.3425478140       -3.0560444463        2.5808251742
 H        -8.9042143313       -1.3674082934        2.1575369483
 H        -6.2292150400       -1.7371940908        5.2281781151
 H        -5.9347729635       -3.2806887537        4.2181431695
 H        -7.4922551740       -2.5300692208        4.2132054554
 H        -4.9042728561       -3.9170240127        2.0580714339
 H        -3.9788336520       -2.4365085776        1.5512952380
 H        -4.8970550763       -3.4059772016        0.3715995959
 H        -6.7794600945       -0.0149965952        0.9548215442
 H        -6.0946998836       -1.2081005059       -0.2692266303
 H        -4.9868735195       -0.5062191534        0.8379015705
 H       -10.4615172461       -4.0814424565       -1.9754711230
 H       -10.2722598680       -3.2623327629       -3.5008168981
 H       -11.3392772543       -2.6384084023       -2.2044018177
 H        -7.8954970609       -3.2765369729       -3.1743865408
 H        -7.6683806333       -3.6113594233       -1.4356063324
 H        -6.9899169157       -2.1540366164       -2.1288540726
 H       -11.6246635260        2.1987878049       -1.3898007201
 H       -11.2589081045        0.8300210988       -2.4571259668
 H       -12.6911327058        1.8689398385       -2.6807987597
 H       -10.6621211562        1.2332819082       -4.9101308942
 H       -10.4665404711        2.7716170497       -5.5577489238
 H       -12.1316988830        2.3385780521       -5.1779604373
 H       -13.0242375984        8.5239483971       -4.1708695597
 H       -11.9373674720        9.8143120800       -4.1696084935
 H       -13.4777889002        9.9216288630       -3.2419679782
 H       -11.3793656680       10.5553670481       -1.3249562639
 H       -10.1757808052        9.7054999044       -2.1101701433
 H       -11.0185290034        9.1049082391       -0.5495949810
 H       -12.3611466311        3.5026770836        2.7450712698
 H       -14.1739861435        3.1567809520        2.9385350613
 H       -13.3255939414        4.0532227914        4.1038164629
 H       -15.3291047265        5.3990522145        3.5617257706
 H       -15.7042700705        5.1091141519        1.6702354821
 H       -15.2615122564        6.6335858700        2.2749798219
 H        -6.2972920894        8.1043108715        0.6196115323
 H        -8.1373946527        7.5623315018       -0.0503951084
 H        -6.7964106357        6.4716499175       -0.0444052400
 H        -5.6866748087        6.6468339515        2.5025186843
 H        -6.7264322592        5.2280398238        2.4042975981
 H        -7.0271366705        6.3694873494        3.6906612903
 Na      -10.8010732091        4.6861446539       -0.6698308000
