117

 C        -7.5723396984        9.9043849890        1.8782358437
 C        -7.7252215968        8.5261627813        2.6171256909
 O        -8.1035582383        8.4899496717        3.8145811347
 C        -7.6655608002        7.2222246286        1.7846324555
 C        -9.0503846907        6.4597708220        1.6973912828
 O        -9.4219335369        5.7773808747        0.7473326281
 C       -10.0068965354        6.5413285480        2.9648520041
 C       -11.1872877612        5.6043561409        2.8434656995
 C       -12.5043395276        6.3091480488        2.7087820361
 O       -12.6888753124        7.4975001155        2.6446247050
 C       -13.7504889439        5.3220775450        2.3667619942
 C       -13.4109541114        5.1812417984        0.9660089771
 O       -12.6622818674        4.2453824648        0.7338417800
 C       -13.7297341259        6.1858338394       -0.1234917520
 C       -12.9251159254        7.5337435590       -0.1723541995
 C       -13.2562210835        8.1530529817       -1.5285563973
 O       -14.2958196714        8.6245073885       -1.9213358246
 C       -11.9901649384        8.3651090099       -2.5054322366
 C       -11.0532437122        7.1517087560       -2.5878454868
 O       -10.5071972728        6.6435824659       -1.6045091855
 C       -10.6419909723        6.5978321065       -3.9807654608
 C       -10.1659788436        5.1455113280       -4.0674454372
 C       -11.2226012810        4.1392108564       -3.5837463586
 O       -12.1604998706        4.3689521237       -2.8309226702
 C       -10.7948488461        2.6350271685       -3.7257903623
 C        -9.3951316014        2.4787325996       -2.8497268344
 O        -9.3901890440        3.0838230712       -1.8232274051
 C        -8.2213436257        1.5976422783       -3.4638912442
 C        -8.1644340640        0.0984496862       -2.7109386862
 C        -9.2167280776       -0.8998556437       -2.8970903537
 O       -10.2412930380       -0.7238493891       -3.5950456914
 C        -9.2511089026       -2.1519473434       -1.9585621838
 C        -9.3009685442       -1.6709466160       -0.4760038493
 O        -9.3273674563       -0.4776615348       -0.1678945047
 C        -9.7407027287       -2.6115460805        0.6966739966
 C        -8.8507995403       -2.3381013713        1.9388826044
 C        -7.4520996938       -2.9916922791        1.7369046820
 O        -7.5276765187       -4.1357863400        1.3661316404
 C        -6.1517747493       -2.1635276651        1.8165865957
 C        -5.8315815745       -1.6889458066        3.2803866311
 O        -5.1058643122       -0.7604583049        3.5394305768
 C        -6.3793822490       -2.5646288014        4.4454267881
 C        -4.9767149394       -2.9257875879        1.3326923324
 C        -6.4490847355       -0.9035879062        0.8648784953
 C       -10.5129755934       -2.9630769499       -2.2474212140
 C        -7.9017936993       -2.9364204553       -2.2169402948
 C       -11.9131569841        1.7921602870       -2.9497163661
 C       -10.7046309415        2.1410754925       -5.1568827397
 C       -12.3675015566        8.9405277241       -4.0128386706
 C       -11.1485371933        9.5983913009       -1.8141514449
 C       -13.7591016386        3.8710354112        3.0208015225
 C       -15.0606146695        6.1072183624        2.6337512300
 C        -7.2665473317        7.4588820486        0.4004857207
 C        -6.6913491964        6.2587163188        2.4521460383
 H        -8.3916086035       10.5281692932        2.1753959236
 H        -7.6408076316        9.7914200541        0.7715749331
 H        -6.6778398548       10.4377793727        2.0818825652
 H       -10.2489052310        7.4916285853        3.2671585883
 H        -9.4691899872        6.1307358603        3.8185597546
 H       -11.1492411064        5.1165395422        3.8314365986
 H       -11.1235269021        4.8509860821        1.9602212703
 H       -14.8000939105        6.3306522433       -0.3031217360
 H       -13.6424496530        5.6331099752       -1.1110963733
 H       -11.9268330290        7.2783760885        0.1390594106
 H       -13.2123584922        8.2347035182        0.5925285826
 H        -9.9232811089        7.4395536368       -4.4356025062
 H       -11.5459442710        6.6850068081       -4.5735082094
 H        -9.3840883175        5.0264483052       -3.3784567826
 H        -9.8942075887        4.8708262259       -5.0409145625
 H        -7.2488679324        2.0762968483       -3.4797833805
 H        -8.5103617090        1.4004216782       -4.4999841392
 H        -8.0760724827        0.4557927127       -1.6303811919
 H        -7.2042061523       -0.2594982037       -2.9404111910
 H        -9.3075937427       -3.5905750675        0.3628270317
 H       -10.8514082410       -2.6231803483        0.8537522491
 H        -9.3588030708       -2.7265922443        2.8905370902
 H        -8.7853423547       -1.3343487488        2.0421570674
 H        -6.2762392029       -1.9657822336        5.3334878239
 H        -5.8986655590       -3.5729567586        4.5224646905
 H        -7.4316873577       -2.6353335751        4.2424025585
 H        -4.7401936462       -3.6918425189        2.0249468988
 H        -4.0960488679       -2.2718310914        1.1441666368
 H        -5.1310566778       -3.4187740546        0.4007736917
 H        -7.3066944600       -0.4060682033        1.3336502980
 H        -6.5908511738       -1.2423584803       -0.1458113865
 H        -5.6740555345       -0.2221781924        0.8356323656
 H       -10.5757030559       -3.9210266284       -1.8346847647
 H       -10.3984614836       -3.1655399479       -3.2820162971
 H       -11.4720934922       -2.6231797328       -1.8503435882
 H        -7.7678893496       -2.9876678055       -3.2731703432
 H        -7.8221221325       -3.9105660493       -1.8624893120
 H        -7.0235500146       -2.4906001044       -1.9085344226
 H       -11.7587971013        1.9495467794       -1.9101062896
 H       -11.5980221064        0.7844609802       -3.2355878479
 H       -13.0161346839        1.8139662102       -3.2361312786
 H       -10.3581788497        1.0928742865       -5.1797829442
 H        -9.9042816972        2.6112100734       -5.7634724380
 H       -11.6247286479        2.3874810869       -5.7374092763
 H       -13.4120695891        8.5438844628       -4.2508297557
 H       -11.8302445025        8.5208568184       -4.8583019761
 H       -12.4723977121       10.0076585419       -4.0310814926
 H       -11.9695353450       10.2969725982       -1.4922664309
 H       -10.5857099737       10.1940834815       -2.4652666053
 H       -10.8356225779        9.3111200287       -0.7901575000
 H       -12.8535887837        3.3636058070        3.1661550295
 H       -14.5004355269        3.2793161303        2.6234002986
 H       -14.2371962776        3.9405740035        4.0396119526
 H       -15.3872660012        5.9593523611        3.6020255466
 H       -15.7868735293        5.8365619658        1.8443224751
 H       -14.8859726634        7.1906897659        2.4901472527
 H        -6.3453654130        7.7916037687        0.3935261418
 H        -8.0362794212        7.8710254267       -0.1071756108
 H        -7.2298283369        6.4550457811       -0.0838895705
 H        -5.6571889297        6.6770607267        2.3135884746
 H        -6.7591912207        5.1697956855        2.0072918349
 H        -7.0463601934        6.1316425014        3.5430587092
 Na      -10.6972883924        4.2935304912       -0.6712071844
