117

 C        -7.4504657067       10.0024543382        1.8785194297
 C        -7.8238152489        8.6523664491        2.4758796166
 O        -8.1185489199        8.5732719442        3.6993215004
 C        -7.7042710752        7.2243638954        1.5959500164
 C        -9.1209992125        6.5353852213        1.7016805382
 O        -9.4460099785        5.8244709125        0.7966464432
 C        -9.8641742403        6.4327295524        3.1449234253
 C       -11.1398472574        5.4668107179        3.0648955739
 C       -12.5280650584        6.2692909624        2.9019719260
 O       -12.5221555915        7.4260402387        2.5992770247
 C       -13.8599986871        5.5292950039        2.5586538474
 C       -13.3629177727        5.2789718198        0.9746114196
 O       -12.4806206049        4.4768617264        0.7010640541
 C       -13.9070763266        6.2090447549       -0.1461386964
 C       -13.1057715457        7.5436639706       -0.3187970568
 C       -13.1980273975        8.2448282969       -1.6540822134
 O       -14.2716429858        8.6831029864       -1.9655545331
 C       -11.8154476290        8.4339241619       -2.5665804094
 C       -10.9280212231        7.1364142217       -2.6432717344
 O       -10.5735492780        6.6142188124       -1.6026771116
 C       -10.6484565929        6.4942488900       -4.0348272734
 C       -10.1544300942        5.0827948124       -4.0135699090
 C       -11.1240127282        4.0931328401       -3.4721091129
 O       -12.1167975578        4.3673122856       -2.8618350653
 C       -10.7713070853        2.4832391618       -3.7862289442
 C        -9.5542023292        2.1890854674       -2.9786619926
 O        -9.3200056595        2.8022900773       -1.8324044454
 C        -8.4292015370        1.3901079600       -3.3045549209
 C        -8.1949069994        0.1085271048       -2.4568250128
 C        -9.3343935156       -0.7715899705       -2.7144150188
 O       -10.2095480919       -0.6457734321       -3.5326814043
 C        -9.2986632281       -2.1792959146       -1.9145187100
 C        -9.3971854659       -1.6019007328       -0.4301302355
 O        -9.4534175551       -0.4056951404       -0.1930301316
 C        -9.5699456664       -2.6684843464        0.6723180178
 C        -8.9743646487       -2.4586108563        2.0104128599
 C        -7.5839617506       -3.0349915407        1.7898521136
 O        -7.5105962784       -4.1597689883        1.3045220555
 C        -6.2384836842       -2.1620097521        1.9139811204
 C        -5.8189538689       -1.7558385831        3.3720171223
 O        -5.0540498766       -0.7947964217        3.6123381635
 C        -6.3446422017       -2.6315034562        4.4547734942
 C        -5.0098334161       -2.9439514848        1.2011533223
 C        -6.2977339510       -0.8056539964        1.0318383052
 C       -10.5226206958       -3.0374283550       -2.2367125528
 C        -7.9908939717       -2.9723512883       -2.1403781890
 C       -12.0026708960        1.7517736228       -3.2863611496
 C       -10.4811076165        2.1314027630       -5.2575097369
 C       -12.2864228729        8.7785034100       -3.9892066120
 C       -11.0656516310        9.6180530483       -2.0489139581
 C       -14.0611438082        4.0993806921        3.0780406395
 C       -15.1443334040        6.4084850638        2.6702366961
 C        -7.1300551475        7.4441656461        0.1982613587
 C        -6.7069738845        6.2810842619        2.3527610696
 H        -8.1712748672       10.6614294292        2.2359492544
 H        -7.3223359491       10.1035922931        0.7844782470
 H        -6.5620754112       10.3328002185        2.3319195593
 H       -10.0805403149        7.4873342652        3.4546994277
 H        -9.1602031860        6.0648058061        3.9864070033
 H       -11.0964938069        4.7923072026        3.9064796622
 H       -11.0759243731        4.9481420860        2.1621243562
 H       -14.9191145805        6.4870446845        0.1062090834
 H       -14.1305602406        5.7412600590       -0.9775952756
 H       -12.1323001155        7.3070159558        0.0084041745
 H       -13.3836493136        8.1890928812        0.5289198049
 H        -9.7399319420        7.1009010956       -4.4490676698
 H       -11.4186160761        6.6017441378       -4.7219792730
 H        -9.2155834681        5.1090383433       -3.5598257594
 H       -10.0510024337        4.7600709260       -5.0807814144
 H        -7.5708060151        2.0498816101       -3.1599258351
 H        -8.4158444815        1.1357093924       -4.3916159152
 H        -7.9838764326        0.5399429698       -1.4099733379
 H        -7.2614973054       -0.2455909828       -2.8123538900
 H        -9.1691615366       -3.6516451414        0.2986719255
 H       -10.6839480310       -2.6973345318        0.9670959408
 H        -9.7028280269       -2.9901662409        2.6600691046
 H        -8.9968722471       -1.3735567368        2.2620926812
 H        -6.2267778586       -2.3148957537        5.5472844610
 H        -5.8403097555       -3.5721782305        4.2042776810
 H        -7.3789353000       -2.7034813200        4.1773733672
 H        -4.6905797558       -3.7295595900        1.8522408098
 H        -4.2349545817       -2.2808681145        1.0463557491
 H        -5.1435027197       -3.3610128289        0.2016186224
 H        -6.9925180469       -0.0606674619        1.2946078914
 H        -6.4026282912       -1.1936596125        0.0574250656
 H        -5.2957071169       -0.3019538381        1.0469755567
 H       -10.7802900095       -3.9414384322       -1.6324461355
 H       -10.4696743226       -3.3976186513       -3.2660603648
 H       -11.4136666361       -2.5353760791       -1.9017936882
 H        -7.7011540843       -3.1438179726       -3.1299565487
 H        -8.0533843968       -3.9156472494       -1.6122378276
 H        -7.1405290096       -2.5065638538       -1.7615440476
 H       -12.0820107661        1.9667038148       -2.1614592503
 H       -12.1194016949        0.6938671469       -3.6531894718
 H       -12.8882415613        2.1928974125       -3.7922756917
 H       -10.2353544863        1.0940335576       -5.3873888824
 H        -9.5795178164        2.6077532226       -5.6003110430
 H       -11.1542903022        2.4695213240       -5.8953987182
 H       -13.1638344190        8.2406406041       -4.2337810642
 H       -11.5994721429        8.4013822388       -4.7440695263
 H       -12.5377923975        9.8767876047       -4.1682594084
 H       -11.6948271538       10.3976736453       -1.5479802123
 H       -10.5574817726       10.1532071086       -2.8148214838
 H       -10.4962616971        9.2481540066       -1.1692431031
 H       -13.1182834161        3.4819243805        2.9729892568
 H       -14.9111365813        3.5978132839        2.6834567781
 H       -14.3269756600        3.9690046958        4.0946289667
 H       -15.4470027226        6.4431431803        3.7420089703
 H       -15.9329508249        6.0118683317        2.0985804774
 H       -14.9230348238        7.4040636043        2.3300408298
 H        -6.0187934865        7.6363613347        0.3833688485
 H        -7.8020733739        8.1795223906       -0.1789339500
 H        -7.1738365975        6.6437686793       -0.4367917517
 H        -5.6778060669        6.7503764913        2.3091567290
 H        -6.7212579041        5.3505188555        1.8119081142
 H        -7.0302258507        5.9843425500        3.2838066636
 Na      -10.7042399577        4.3023085842       -0.6342555552
