117

 C        -7.1484067249       10.0657178950        1.6791024334
 C        -7.7680343528        8.6360763727        2.4356229085
 O        -8.2839093287        8.6636075666        3.4923447501
 C        -7.7925153569        7.1708383291        1.6039901552
 C        -9.1389588462        6.4727667503        1.7138599286
 O        -9.5835803852        5.8007576633        0.7915819671
 C        -9.7917220527        6.2807720866        3.1741645785
 C       -11.0645422399        5.5243034450        3.4254012774
 C       -12.2722099093        6.3341631062        2.9054810756
 O       -12.1635538034        7.5566509828        2.9288944515
 C       -13.7419655526        5.8349709274        2.4883401345
 C       -13.5331862884        5.5244680715        0.8758294987
 O       -12.5989437243        4.7909307196        0.6218340517
 C       -14.0824379902        6.3936561378       -0.2662904446
 C       -12.9987810092        7.5833821678       -0.5099265402
 C       -13.1028458544        8.2909132568       -1.8407567443
 O       -14.1616499570        8.7418354782       -2.1840236512
 C       -11.7609816937        8.3264612272       -2.8366939017
 C       -11.1135926530        7.0219757230       -2.8264544881
 O       -10.6875625892        6.6138436165       -1.7472976127
 C       -10.6724515467        6.3663614186       -4.1478941356
 C        -9.9695791436        4.9579783464       -3.9304214865
 C       -10.9295855448        3.9041352592       -3.5049221406
 O       -11.9250413330        4.2719027718       -2.8794797526
 C       -10.7369964642        2.4611606246       -3.9037931617
 C        -9.6277033060        1.9820165384       -2.8791643702
 O        -9.6698695557        2.2765199060       -1.7626231726
 C        -8.3667175600        1.3421496763       -3.3773596832
 C        -8.1346001607        0.0121384611       -2.5210291316
 C        -9.2903265386       -0.9213407452       -2.5934310282
 O       -10.1615076718       -0.5742548782       -3.4200145678
 C        -9.5277526068       -2.1775574884       -1.7018894234
 C        -9.8381770419       -1.7929796463       -0.1688197778
 O        -9.7847193168       -0.6220146485        0.2240143069
 C       -10.1119800572       -2.8270453306        0.8968568527
 C        -8.7991078744       -2.4888836867        2.0253735373
 C        -7.4063083309       -3.0935479997        1.6622361337
 O        -7.2182323791       -4.2873705818        1.5042629803
 C        -6.1918647816       -2.1265800833        1.8607637972
 C        -5.7496974935       -1.9720582462        3.4108640616
 O        -5.1373386077       -1.0143919404        3.7579908962
 C        -6.2405415705       -2.9701938743        4.5293640626
 C        -4.9738569108       -2.9434030261        1.3216242635
 C        -6.3577727033       -0.6662598832        1.3036180729
 C       -10.7065985889       -3.0294132200       -2.3437352327
 C        -8.1395797753       -2.9527866118       -1.7214769908
 C       -12.0425269369        1.6409536453       -3.8274851032
 C       -10.2847914111        2.3568965654       -5.4385031413
 C       -12.3038921764        8.8552159706       -4.1821645196
 C       -10.8124071160        9.3503943137       -2.2281953698
 C       -14.2024621879        4.5597273326        3.2267379354
 C       -14.8086854375        7.0390750191        2.7119299119
 C        -7.5364830018        7.4755029561        0.1905902533
 C        -6.6092180831        6.5336292503        2.3123772715
 H        -7.7937307797       10.9402064640        2.0611462159
 H        -6.9616455745        9.9273185500        0.5760424242
 H        -6.0844058856       10.1571328635        2.0621599022
 H        -9.7203998769        7.2136606651        3.7283249303
 H        -9.0498321215        5.6694440816        3.6671217429
 H       -11.2263820463        5.5762527396        4.5092956658
 H       -10.9830405520        4.3748213863        3.2054044997
 H       -15.0626592294        6.9811136826       -0.2483193210
 H       -14.2748131916        5.5841331070       -1.1372132882
 H       -11.9859739908        7.3086849073       -0.0839659100
 H       -13.2705956329        8.2938642753        0.2753479241
 H       -10.1074115048        6.9742208893       -4.8698605034
 H       -11.6508527209        6.2401916919       -4.7209221321
 H        -9.2207066331        5.0394628605       -2.9989720693
 H        -9.3418670136        4.7405898873       -4.8239861767
 H        -7.5200120729        2.0571072166       -3.4089691549
 H        -8.4060573295        0.9244421649       -4.3655310255
 H        -7.6927426637        0.2493407484       -1.5655588992
 H        -7.3858805801       -0.3860171511       -3.2697764980
 H        -9.9203520052       -3.8446416155        0.5261133099
 H       -10.9883570063       -2.5163066676        1.3984420504
 H        -9.1645367383       -2.9265517844        2.9764077861
 H        -8.7351655792       -1.4377345946        2.1572212925
 H        -5.6705015607       -2.6787330387        5.3582503432
 H        -6.0520577404       -4.0400692629        4.3298152810
 H        -7.2993168041       -2.6808109987        4.6803204421
 H        -4.9450429506       -3.9695649829        1.7328278658
 H        -3.9672716785       -2.3777663474        1.4081047677
 H        -4.9806120124       -2.9096204538        0.2420674661
 H        -7.2755529939       -0.1942235753        1.8324322165
 H        -6.4499100415       -0.5084706014        0.1641096640
 H        -5.5936635471       -0.1000986244        1.7705255358
 H       -10.9594079376       -3.7421981318       -1.6004860134
 H       -10.4590065899       -3.6679940655       -3.1944571844
 H       -11.7423272707       -2.6406768348       -2.2571483641
 H        -7.6991888945       -3.4096633997       -2.6936181204
 H        -8.1704414693       -3.7624175033       -0.9298273278
 H        -7.2366557576       -2.2923290383       -1.4446057864
 H       -12.4535835203        1.8121654488       -2.9043166064
 H       -11.9754637446        0.6450761830       -4.1635808220
 H       -12.7159261835        1.9551377499       -4.6495404231
 H       -10.4676667618        1.3365838270       -5.8396384084
 H        -9.3689645166        2.7843992057       -5.8512942612
 H       -11.0693643704        2.9701140078       -6.0250241611
 H       -12.0920353861        8.3265818237       -5.1571206702
 H       -11.7942394023        9.7858903115       -4.3443779827
 H       -13.3113354841        9.0490039733       -4.0632710281
 H       -11.1521891525       10.3759483216       -2.2590517892
 H        -9.9806450129        9.3272653568       -2.9850648413
 H       -10.4278409126        9.0913684698       -1.2429039261
 H       -13.7289008297        3.6352694599        3.0250451253
 H       -15.3021589509        4.3600415005        3.1626765921
 H       -14.0948773022        4.5936867924        4.3723144529
 H       -14.8188294804        7.3232258974        3.7283863412
 H       -15.9045739116        6.7013319557        2.5703617604
 H       -14.5093293806        7.9098636033        2.0622271883
 H        -6.5079675090        7.5519161291        0.0602230288
 H        -8.3336896275        8.1884578600       -0.1805377584
 H        -7.7817751821        6.3761252425       -0.2997515020
 H        -5.8676584347        7.2102916445        2.1536361339
 H        -6.4978239614        5.4714593884        2.0491024685
 H        -6.8559316855        6.4268103340        3.3711976741
 Na      -10.6837243163        4.5216604138       -0.7368215143
