117

 C        -7.0342010380        9.7429388451        1.6896753547
 C        -7.9775818896        8.7021375459        2.2471676744
 O        -8.6679102978        8.9171650997        3.1596690751
 C        -7.8349319237        7.2464964931        1.5836369365
 C        -9.1477087319        6.3022704287        1.9958972992
 O        -9.7301648562        5.6851857981        1.0964766735
 C        -9.6408655502        6.0274806037        3.4002842591
 C       -11.1251658819        5.6203728102        3.4377824734
 C       -11.9634552383        6.8553436748        3.0371699455
 O       -11.5195333875        7.9977296559        3.1326639309
 C       -13.4574706158        6.4985965615        2.3044574048
 C       -13.2212367735        5.9948273768        0.9137305922
 O       -12.7497751380        4.8534189453        0.7395968721
 C       -13.7408737305        6.8020311098       -0.3115428493
 C       -12.8661354045        8.0156572771       -0.6339585405
 C       -13.0006372879        8.3183182168       -2.1532842862
 O       -14.0627955570        8.6570714058       -2.6281775962
 C       -11.7681458938        8.4926184223       -3.0745877636
 C       -11.0784218277        7.0313184887       -3.0274345190
 O       -10.7443986173        6.5246600719       -1.9833138458
 C       -10.7761927357        6.4293044718       -4.4180780046
 C        -9.9803613552        5.0098610743       -4.3108665761
 C       -10.8818845442        3.8574851951       -3.7051823031
 O       -11.7384018893        4.0799026659       -2.9261851457
 C       -10.5529783179        2.3999814822       -4.1879927756
 C        -9.8677682283        1.6438687930       -2.9640945128
 O       -10.1158497833        1.9998517309       -1.7590246158
 C        -8.4549762625        1.0641274614       -3.1710122563
 C        -8.2669935580       -0.1745567786       -2.2941979539
 C        -9.4619258964       -1.1281485354       -2.4269240291
 O       -10.3815289349       -0.8135465750       -3.1654443896
 C        -9.5917586646       -2.2639941933       -1.4081497777
 C        -9.8829837872       -1.7303438857        0.1133080140
 O       -10.4448668638       -0.6852901965        0.3217020721
 C        -9.8162678993       -2.8378842794        1.1664933440
 C        -8.7245066877       -2.7115911999        2.3064229410
 C        -7.4039182657       -3.1827980375        1.8489052810
 O        -7.1838833465       -4.2840459218        1.4363072826
 C        -6.1867091290       -2.2126386957        2.0298133448
 C        -5.8662552027       -2.1716554539        3.5745277588
 O        -5.3149397524       -1.2761330200        4.1179745529
 C        -6.0881983222       -3.5247151556        4.4467189450
 C        -4.8700932265       -2.8299644561        1.3314495712
 C        -6.6080330281       -0.7290376202        1.5071455140
 C       -10.7682567293       -3.3024670753       -1.7419038848
 C        -8.2693103451       -3.1132327974       -1.4126102590
 C       -11.9111779206        1.6002140440       -4.3086513143
 C        -9.7884301788        2.3715448078       -5.5678423549
 C       -12.1834782074        8.9947451763       -4.4370416178
 C       -10.8206578054        9.5532461433       -2.3760174069
 C       -13.8674484021        5.3478017762        3.2461061043
 C       -14.4811142766        7.6758564393        2.4718542888
 C        -7.9508384990        7.2483058478        0.0280226599
 C        -6.5720127093        6.5033522641        2.0878304272
 H        -6.8265988557       10.2151189977        2.6171777032
 H        -7.4753904444       10.3923859675        1.0047819956
 H        -6.1576897280        9.3700641496        1.1902099373
 H        -9.4049409888        6.8520232830        4.2156367480
 H        -8.9262956985        5.2020509895        3.7146232637
 H       -11.4106390265        5.1395572509        4.2850696454
 H       -11.3086032120        4.9711558462        2.6282726230
 H       -14.6244799082        7.1967526599       -0.0022527993
 H       -13.8282229509        6.2227114911       -1.2225914799
 H       -11.8293012822        7.7825830551       -0.3094774144
 H       -13.1022020813        8.9113079749       -0.1227810116
 H       -10.3225943803        7.0706016634       -5.0218648003
 H       -11.7634265172        6.3219360397       -4.9372747794
 H        -9.0138817118        4.9679489891       -3.7360706916
 H        -9.6140905628        4.8115283266       -5.3131560606
 H        -7.8021023078        1.9410616483       -2.9212843304
 H        -8.3236247595        0.7897403499       -4.2278675831
 H        -8.2529976897        0.1433945758       -1.2976296768
 H        -7.4025556560       -0.8613415397       -2.6933777684
 H        -9.5976155546       -3.7661250936        0.5462665611
 H       -10.7578189544       -2.5535736052        1.6413518713
 H        -8.9504008170       -3.4402675747        3.1095797999
 H        -8.7281001710       -1.6788907752        2.8245917272
 H        -5.2532384510       -3.5957005109        5.0755089576
 H        -5.9650169008       -4.4495540140        3.8736628492
 H        -7.0704907878       -3.4281731257        4.9988813493
 H        -4.5835465461       -3.7453980523        1.7829227654
 H        -4.0096191498       -2.1400632495        1.4324911126
 H        -5.0119511649       -2.8642189607        0.2871780870
 H        -7.4679568099       -0.2670933351        1.9283656606
 H        -6.9529000113       -0.8883630757        0.5142337617
 H        -5.7822230907       -0.0773075044        1.5705998208
 H       -10.7518741254       -4.2808765249       -1.2435307597
 H       -10.5842522463       -3.6198577363       -2.8039085055
 H       -11.8656717368       -3.0278688637       -1.7607391757
 H        -7.8453929219       -3.0780524729       -2.3942121650
 H        -8.4135959212       -4.1309073185       -1.2905948016
 H        -7.5110567317       -2.7273391215       -0.7273888341
 H       -12.3761558219        1.4779841952       -3.3195537801
 H       -11.7298478643        0.6318000902       -4.8152999783
 H       -12.6552118577        1.9815388042       -5.0971544647
 H        -9.7957199747        1.3750664472       -5.7410280761
 H        -8.8464161914        2.6816697092       -5.4627649478
 H       -10.1256813407        2.7842280001       -6.5116035198
 H       -11.4991566611        9.7873743696       -4.9189382884
 H       -13.1531104143        9.4535095031       -4.2490199985
 H       -12.3508072688        8.1670777094       -5.1137737168
 H       -11.3982211842       10.4563682503       -2.3929521315
 H        -9.8264414053        9.6612777581       -2.9605430573
 H       -10.3905624284        9.2914860522       -1.4396783773
 H       -13.2982272849        4.4723545128        3.2303721749
 H       -14.8191656302        4.8434029011        2.9806462958
 H       -13.8795285443        5.6483663609        4.2830582698
 H       -14.6804667059        7.6724962277        3.5172589227
 H       -15.4551354517        7.3553970468        2.1506782657
 H       -14.1615915459        8.6089115005        2.1163664597
 H        -7.2010642710        7.8650560555       -0.3859217649
 H        -8.8884753468        7.8374435880       -0.0499163779
 H        -7.8095126091        6.1546095876       -0.3540939699
 H        -5.7357211783        7.0387109220        1.8407184979
 H        -6.5792154320        5.4515487174        1.8085138870
 H        -6.7208287097        6.5570059850        3.1850143012
 Na      -10.9859490140        4.3569567285       -0.7062501668
