117

 C       -12.5554776376       -2.1208368080       -8.0315217019
 C       -11.5533869393       -2.0060307142       -6.8417435090
 O       -11.2975979674       -3.0408930420       -6.2366638545
 C       -10.6287666215       -0.8337974392       -6.5493730716
 C       -11.0386195361       -0.0982658730       -5.1547800054
 O       -11.4821859336        1.0250605431       -5.0050039820
 C       -10.8857224803       -1.0685088131       -3.9524246582
 C       -11.2903643625       -0.3912489544       -2.6571480690
 C       -11.2390469632       -1.3585976577       -1.4929499393
 O       -12.1757632574       -2.0789323431       -1.3423034379
 C       -10.1479386532       -1.0917012569       -0.2730171163
 C       -10.5899775963        0.1572097848        0.6841582223
 O       -10.5399620431        1.2832628986        0.2259729186
 C       -10.8635662350       -0.1970375819        2.1506997238
 C       -12.1095297181        0.5796449489        2.6280492025
 C       -11.8638526708        2.1008040148        2.8231098923
 O       -10.6846361334        2.4913492890        2.9887177355
 C       -13.0739949150        3.0574741935        2.7392674104
 C       -12.6621719247        4.5948183013        3.2256291433
 O       -11.5791772532        4.6903443978        3.7922989382
 C       -13.7013939642        5.7503341966        3.1313538294
 C       -13.5705828041        6.7783855180        1.9968556388
 C       -12.1773233507        6.8360504421        1.3979462797
 O       -11.7137122546        5.7524922413        1.1362271595
 C       -11.6806720518        8.1220999603        0.6852335098
 C       -10.1933629209        7.8428260333        0.1936439463
 O        -9.4557664290        7.0669492694        0.7779546272
 C        -9.4926958701        8.8734065163       -0.7582479834
 C        -7.9378364407        8.6519850984       -0.9695764324
 C        -7.1345211173        9.3012656342        0.2516400119
 O        -7.6589963980       10.0404680785        1.0238947229
 C        -5.6347870536        8.8225871726        0.5082405558
 C        -5.8013384534        7.5083723905        1.2236225360
 O        -6.0324634785        6.4263446661        0.7125051702
 C        -5.8678736805        7.3962454966        2.7816735853
 C        -5.5728191398        5.9017820723        3.1430205546
 C        -6.7390795879        4.9780659889        2.6876558376
 O        -7.9251509649        5.3226117279        2.8227481679
 C        -6.4118490114        3.6122380201        2.0519111492
 C        -7.0670311700        3.6562336025        0.6308373392
 O        -8.2899762900        3.6466243698        0.6252400948
 C        -6.1902707200        3.5188300723       -0.7089170796
 C        -4.9444535764        3.1758605284        2.2475289781
 C        -7.2438156582        2.5041344684        2.7605657177
 C        -4.8840389330        8.6414069001       -0.7995504616
 C        -4.7799201510        9.8297727210        1.3618167925
 C       -12.7359793269        8.3051296361       -0.4331050177
 C       -11.5562346076        9.2689986473        1.7779054220
 C       -13.4011826815        3.2616156440        1.1556786776
 C       -14.2930205969        2.6307927873        3.5040035308
 C       -10.0651911565       -2.4744627431        0.4218172053
 C        -8.7248628754       -0.7487217524       -0.7793788059
 C        -9.0551632399       -1.3360623479       -6.4969872829
 C       -10.7147343119        0.1802987664       -7.7314186730
 H       -12.9669220157       -3.1293142287       -8.1453025303
 H       -11.9871037161       -1.7604945771       -8.8149672062
 H       -13.3243606142       -1.4490511720       -7.7450248327
 H        -9.9263291301       -1.5373182955       -3.9538191000
 H       -11.4396564753       -1.9511955249       -4.1386372355
 H       -12.3703268590       -0.1106807265       -2.8430105498
 H       -10.6260592595        0.4329028250       -2.4739094414
 H       -10.0518607999        0.1508126606        2.7669975216
 H       -11.1379183160       -1.2324689869        2.3543888480
 H       -12.4256873736        0.1326641916        3.5915644399
 H       -12.8875602395        0.5171416316        1.8934271500
 H       -13.7629211171        6.1928059456        4.1010179948
 H       -14.7083369415        5.2307558907        2.9694536819
 H       -13.9969456829        7.7166317406        2.3986719582
 H       -14.3533910168        6.3809122723        1.2989871769
 H        -9.6694397625        9.8231103112       -0.3905644391
 H        -9.9345328583        8.7323509016       -1.7180957024
 H        -7.7094126038        9.0579065636       -1.9501526481
 H        -7.5940989003        7.6505889849       -1.0512053821
 H        -6.8579356610        7.7131503522        3.2121257955
 H        -5.1621127861        7.9776211212        3.4487048392
 H        -5.6023888058        5.7329859933        4.2152085103
 H        -4.5424310119        5.6396329771        2.8520157871
 H        -5.9951333799        2.4852963535       -0.9564755284
 H        -5.2041304090        4.0354929883       -0.6674133716
 H        -6.5467825046        3.9357961851       -1.6648490051
 H        -4.7690265876        2.9901437484        3.2369416626
 H        -4.2478444641        3.9636231886        1.9261116351
 H        -4.8011592884        2.2742809263        1.5993205486
 H        -8.2561316341        2.7192564736        2.5051943305
 H        -7.1701305127        2.5091948780        3.9386602884
 H        -6.8919205143        1.5564879019        2.5028338175
 H        -4.9830510979        9.6429119580       -1.1961806742
 H        -5.2242547752        7.9582382416       -1.5161471449
 H        -3.7847667423        8.6285952077       -0.5089779492
 H        -4.1037249720        9.4141388946        2.0635346175
 H        -5.5529960728       10.3635933600        1.8935471924
 H        -4.2786702478       10.5424672876        0.7438057208
 H       -13.6584751700        8.7438348982       -0.0884827985
 H       -12.9120258492        7.3823111520       -0.9458190579
 H       -12.3126208137        8.9753718600       -1.1971887664
 H       -11.2288693513        8.8403975129        2.6953811455
 H       -12.5653799125        9.7317345312        1.8488520949
 H       -10.9751669834       10.0994602643        1.3606028666
 H       -12.4845689553        3.6783831229        0.7704833817
 H       -14.2042436349        4.0384404154        0.9884344469
 H       -13.6420930382        2.3489110564        0.6121524167
 H       -14.7555320448        1.8385195227        2.8778401528
 H       -15.1147391688        3.3516048682        3.5676317213
 H       -14.0320817822        2.1487416711        4.4190489994
 H       -10.0900697613       -3.2676332416       -0.3001878675
 H       -10.9438781055       -2.6243422203        1.0361387626
 H        -9.2287914330       -2.6272182582        1.0787327737
 H        -8.2287222560       -0.2854237376        0.0593212095
 H        -8.7791934206       -0.0805209155       -1.6650736603
 H        -8.2573570147       -1.6897542315       -1.1324139592
 H        -8.9333460094       -1.9685989261       -5.5562404895
 H        -8.4049503209       -0.4691450337       -6.3646603284
 H        -8.8259031308       -1.9093284654       -7.3757810678
 H       -11.6417009162        0.7709350785       -7.7332120439
 H       -10.7911915658       -0.3913801995       -8.6095661512
 H        -9.9416852349        0.8894161366       -7.8144941937
 Na       -9.9650147448        4.5250470729        1.9431633518
