117

 C        -6.5024265791        9.2061846905        1.4432619958
 C        -7.9336443243        8.4588517905        1.7404518099
 O        -8.7922872699        8.9350241408        2.3780506319
 C        -7.8518144169        6.8952601745        1.1844908852
 C        -9.1140199814        6.0961481349        1.6120992586
 O        -9.6815773179        5.4434063635        0.7559601306
 C        -9.6477595259        6.0508165513        3.1304628102
 C       -11.1858364132        6.0628608572        3.2873882345
 C       -11.9898174947        7.4368359932        2.7964538603
 O       -11.4986823074        8.5516767767        3.0167325179
 C       -13.4331507358        7.1457980848        2.2680022579
 C       -13.2063596671        6.3839038549        0.9253884355
 O       -12.4545618506        5.4190455422        0.7093424559
 C       -13.8090095385        7.0866493481       -0.2936763075
 C       -12.4999731698        7.9462221745       -0.8019436787
 C       -12.6416676580        8.2407216168       -2.3167172052
 O       -13.7465203159        8.1981533706       -2.7794244454
 C       -11.4635185447        8.6091970416       -3.2509666785
 C       -10.8887526508        7.2011475556       -3.5411403133
 O       -10.3900894536        6.4963838790       -2.6495851001
 C       -11.0637871432        6.4866947840       -4.8795750234
 C       -10.3444990618        5.1551695333       -5.0324111315
 C       -10.9157176627        3.9651740593       -4.1265090912
 O       -12.0123064120        4.2346944525       -3.4978512513
 C       -10.2795076672        2.5984816199       -4.0661515699
 C        -9.6776903552        2.1154453938       -2.6858227869
 O        -9.9440418184        2.7696224785       -1.7001193578
 C        -9.0538234861        0.6743340028       -2.6510398085
 C        -9.2829292397       -0.2151928403       -1.4620097148
 C       -10.2676681534       -1.4450655464       -1.8246681313
 O       -11.0469021467       -1.4654203631       -2.7247189763
 C       -10.0362747634       -2.7962367670       -0.8689789981
 C       -10.0645013848       -2.3024870863        0.5961800706
 O       -10.1403554842       -1.1460499910        0.9044594724
 C        -9.8912051210       -3.5627842883        1.7202916730
 C        -8.8377782150       -3.0453769664        2.7425479718
 C        -7.4746582296       -3.3065425525        2.1132511010
 O        -7.2572555979       -4.2791897237        1.4633257832
 C        -6.1872457319       -2.3107973352        2.4947903504
 C        -5.8471910196       -2.5376499381        4.0093849071
 O        -6.1277906073       -1.7721728507        4.8440653901
 C        -5.1572521698       -3.8980996215        4.2785392703
 C        -4.8619487550       -2.8459984351        1.5468353116
 C        -6.4311083061       -0.7957550120        2.2147630441
 C       -11.3478332512       -3.7490837823       -1.1759721377
 C        -8.5757263803       -3.2558451299       -1.2466963578
 C       -11.4120130555        1.6013640314       -4.4684395979
 C        -9.1220902227        2.5193603631       -5.0520760184
 C       -11.9940469880        9.3555937571       -4.5394513334
 C       -10.3661355023        9.3496164622       -2.5237890097
 C       -14.1472310472        6.4275925016        3.3864528977
 C       -14.0813443286        8.5656135275        2.1010524752
 C        -7.6960949565        6.8634708757       -0.3940163036
 C        -6.7297692491        6.1659183439        1.8496609722
 H        -6.6565608043        9.6024478122        0.3588115580
 H        -5.6338752513        8.5889140354        1.4724816341
 H        -6.4588942467       10.1578811171        2.0737093571
 H        -9.1691359678        6.9087430936        3.6146380508
 H        -9.1985337289        5.2350513966        3.7106642927
 H       -11.5353516819        5.8491003890        4.3714008610
 H       -11.5000201472        5.2537126064        2.6442974675
 H       -14.7268265459        7.6847626622       -0.0562683834
 H       -13.8492113334        6.2787460162       -1.1796074525
 H       -11.6187430162        7.4221341444       -0.4889253648
 H       -12.5449671666        8.9137199496       -0.2555538182
 H       -10.8801181515        7.1872734915       -5.7146828437
 H       -12.1888387986        6.2370575117       -4.8862434110
 H        -9.3415899172        5.2339104017       -4.5362069578
 H       -10.1109402953        4.7503253754       -6.0985011951
 H        -7.9758618194        0.6446118223       -2.7706615466
 H        -9.5225080163        0.1503376120       -3.5451011004
 H        -9.7273858214        0.4824194809       -0.6564582130
 H        -8.4746976968       -0.8095401405       -1.1838478658
 H        -9.5370518549       -4.4463872568        1.2517688106
 H       -10.8755316109       -3.6036403292        2.2324993452
 H        -8.7871247221       -3.7735595734        3.5384989528
 H        -9.0266783005       -2.0608651482        3.1997091597
 H        -5.3141160187       -4.3332695296        5.3107931916
 H        -4.0654060115       -3.8588939972        4.1061768087
 H        -5.6019166378       -4.5383408316        3.5263856833
 H        -4.7798483217       -3.9403022572        1.4290277195
 H        -3.9378007064       -2.4696739246        1.8579049785
 H        -5.1630643885       -2.5681036418        0.5317971268
 H        -7.2689223335       -0.4075907846        2.7238231869
 H        -6.3981438583       -0.4911405237        1.1985177254
 H        -5.5124069162       -0.2631471607        2.6131589374
 H       -11.3670919097       -4.6482621029       -0.4931439496
 H       -11.6067361502       -4.0559251341       -2.1906293721
 H       -12.2543123511       -3.2384351237       -1.0976095864
 H        -8.4672733287       -3.0364802180       -2.3029410838
 H        -8.4207985079       -4.3278414311       -1.1523326381
 H        -7.8678059308       -2.7025474096       -0.5527055814
 H       -12.3574574297        1.6624052060       -3.8249495481
 H       -11.0810344039        0.5796099493       -4.1651909796
 H       -11.7741208070        1.7185528905       -5.4800803818
 H        -8.5597329329        1.6483923173       -4.9788209371
 H        -8.3895527515        3.1663847536       -4.7108186474
 H        -9.4379013246        2.7957462186       -6.1057468468
 H       -12.9012358831        9.8459158221       -4.3652976760
 H       -12.0416963321        8.7360954344       -5.4475020168
 H       -11.2861307793       10.1965073973       -4.6139969305
 H       -10.6495771459       10.3086725841       -2.0991908206
 H        -9.5152367062        9.5794945179       -3.1969204175
 H       -10.0171467764        8.6471602058       -1.7646249214
 H       -13.5552856397        5.5184565403        3.7314228219
 H       -15.1872267847        6.1260259837        3.1921130081
 H       -14.2629789477        6.9958756645        4.2602511354
 H       -14.2126797065        8.8867220197        3.1803182204
 H       -14.9463822081        8.4134185736        1.5566131253
 H       -13.4717668127        9.3128084195        1.6655581934
 H        -7.1280802393        7.7365544272       -0.7443791865
 H        -8.7222600209        7.2878875392       -0.7899282014
 H        -7.6771311476        5.7993587229       -0.7279037601
 H        -5.8380299857        6.4375047040        1.3925666189
 H        -6.8402187190        5.1797121756        1.5771618188
 H        -6.6093857206        6.3208668604        2.9111658425
 Na      -11.0859017472        5.0292106337       -1.0218108860
