117

 C        -6.2099364998        9.1326967511        1.1101154897
 C        -7.4267456725        8.3495766637        1.5580869516
 O        -8.4079789714        8.9196770163        2.0561466327
 C        -7.6691358953        6.7624440905        1.0506342910
 C        -9.0852143676        6.1451458162        1.6104375787
 O        -9.8491386337        5.6578344274        0.8129206670
 C        -9.5906139245        6.6020933569        3.0261557868
 C       -11.0626338085        6.1776815797        3.1724348535
 C       -11.9433623430        7.3502362361        2.9299415542
 O       -11.6492338243        8.4712065013        3.2009310538
 C       -13.5605072978        7.2057597538        2.2753578343
 C       -13.3750610363        6.4543682009        0.8801681874
 O       -13.0346441810        5.2825148138        0.8789626343
 C       -13.6593845672        7.1535545853       -0.4720324087
 C       -12.4797437569        7.9217386093       -1.1268039847
 C       -12.7119264675        8.2782820670       -2.5799595935
 O       -13.7545353904        8.3232105309       -3.1463872955
 C       -11.4822246669        8.5973171064       -3.4096522257
 C       -10.7378271892        7.1266847088       -3.6569497862
 O       -10.0433580497        6.6000123935       -2.8247074243
 C       -11.1233061836        6.4313493132       -4.9069587039
 C       -10.5066927886        5.0410135420       -5.1928306403
 C       -11.0011644105        4.0428369074       -4.1081147237
 O       -11.8763681077        4.2826221434       -3.3787107602
 C       -10.2583211574        2.6016654338       -4.0166863598
 C        -9.8716079363        2.2305952669       -2.5638999697
 O        -9.9261155826        2.9882164582       -1.6225219327
 C        -9.3879249224        0.8248924960       -2.5181358077
 C        -9.7292700773       -0.0042827116       -1.2066219267
 C       -10.4391341047       -1.3843141454       -1.7229775737
 O       -11.1447668980       -1.4531794738       -2.7277364274
 C       -10.1850033742       -2.5714093132       -0.7377433565
 C       -10.0494596230       -2.2558150030        0.8791037494
 O       -10.3135676231       -1.1268943859        1.3121509231
 C        -9.7384659922       -3.5132981332        1.7316151598
 C        -8.6702520399       -3.2915240621        2.7130036116
 C        -7.1954008526       -3.4688629317        2.1556127391
 O        -7.0130356276       -4.5512484943        1.5577446798
 C        -6.0838242775       -2.4917018791        2.5842951415
 C        -5.8071795735       -2.7823163684        4.1976857825
 O        -6.4325838048       -2.0890656161        5.0091866398
 C        -4.8608879672       -3.9326093075        4.5378879849
 C        -4.9279500503       -2.6264707856        1.6716880486
 C        -6.7344302958       -1.0381806693        2.5884897130
 C       -11.3788529247       -3.5659778258       -0.7724606346
 C        -9.0033192023       -3.4425391960       -1.3776256413
 C       -11.3862959650        1.6933892149       -4.6166962227
 C        -9.0221835242        2.4785987407       -4.7938096619
 C       -11.6892647779        9.4943514631       -4.6660527797
 C       -10.3495348509        9.3891609309       -2.5498067139
 C       -14.3237060101        6.3254349616        3.2656872750
 C       -14.1430659665        8.7494762285        2.1148519434
 C        -7.6171115234        6.6977566939       -0.5468250053
 C        -6.5305666812        5.8829997916        1.7816678099
 H        -6.3810926185       10.1714773119        1.0210592775
 H        -5.8701295081        8.5705137367        0.1742337995
 H        -5.4934519261        8.9492722143        1.8970157492
 H        -9.4543101016        7.6322227400        3.2744859610
 H        -8.9667419596        6.1018159611        3.8040026683
 H       -11.3055231481        6.0076043993        4.2040409362
 H       -11.3961464692        5.3066041147        2.5114306086
 H       -14.5517456295        7.7283746828       -0.2401152513
 H       -13.8613074318        6.4714180538       -1.1568205205
 H       -11.6907798088        7.0938537813       -1.0685910833
 H       -12.1647722164        8.7860480436       -0.5123330535
 H       -10.6234645700        6.9937668444       -5.7299728559
 H       -12.1460714913        6.5372358603       -5.0332902884
 H        -9.4426729182        5.0282322097       -5.3991074542
 H       -10.9540284398        4.6767339391       -6.0366182072
 H        -8.2799440602        0.8361583285       -2.6220899620
 H        -9.7528907228        0.2977232799       -3.3565513502
 H       -10.3256575120        0.5603207822       -0.5299757403
 H        -8.8600668124       -0.5139787657       -0.6445055967
 H        -9.4509053942       -4.1671970000        0.8555675028
 H       -10.6659632229       -3.9053433339        2.1475163472
 H        -8.8006235091       -3.8326398291        3.6969850087
 H        -8.7958927317       -2.2749616923        2.9601703004
 H        -5.2767459723       -4.4617940362        5.3906589003
 H        -3.9004446241       -3.4888377751        4.8058863352
 H        -4.6875764148       -4.6707146560        3.7675454347
 H        -4.5192705489       -3.6408869764        1.6608666469
 H        -4.1851059290       -1.8581647192        2.0855430634
 H        -5.2301660976       -2.4985052859        0.6338749286
 H        -7.5654925537       -0.9914811861        3.3807505779
 H        -7.1767109305       -0.9690034921        1.5419205972
 H        -6.1735642175       -0.1264249177        2.6270799335
 H       -11.2026253744       -4.4947465404       -0.3056905432
 H       -11.6364437532       -3.8202621992       -1.8066132502
 H       -12.4300874512       -3.2629269367       -0.5124287226
 H        -9.2010019532       -3.5813579788       -2.4935573999
 H        -8.9377133111       -4.4684227711       -0.8497762158
 H        -8.0573571189       -2.9479742165       -1.1862568830
 H       -12.1339572087        1.3616936872       -3.9743162382
 H       -10.9658260837        0.8071486077       -4.9698073087
 H       -11.9470506016        2.3210621542       -5.3166914862
 H        -8.6924319464        1.3798010349       -4.7740242183
 H        -8.0502186569        2.7975067067       -4.2439812490
 H        -9.1511558161        2.8378998465       -5.7825768611
 H       -12.6635346421        9.9876520034       -4.5519063108
 H       -11.7919488890        8.7716372763       -5.4342430677
 H       -10.9416618776       10.2264436985       -4.8826283735
 H       -10.8166092221       10.1904893751       -1.9260354353
 H        -9.7952072518        9.9075108863       -3.2683818434
 H        -9.7396117514        8.8368938072       -1.8147252592
 H       -14.1173144974        5.2922640036        3.2504501740
 H       -15.3706211046        6.5040646340        3.1046754937
 H       -14.3015735685        6.6163311096        4.3574239478
 H       -13.8188901250        9.2387042591        2.9785863072
 H       -15.2428295029        8.6088105583        1.9400239380
 H       -13.7767213718        9.3009041748        1.1908390093
 H        -6.6729605509        7.3378502472       -0.8464315970
 H        -8.4281415582        7.0489409708       -1.0665115366
 H        -7.5425376846        5.7028573489       -0.8180971009
 H        -5.4264328421        6.2783228639        1.6963230954
 H        -6.4958613717        4.7477234999        1.6003827108
 H        -6.8005126081        6.0523490894        2.8430743990
 Na      -10.9883049372        4.9931277700       -1.2977681568
