117

 C        -5.4830280195        8.2310596399        0.5211965155
 C        -6.9019634410        8.0670551634        0.9712791636
 O        -7.6370342690        8.9704076469        1.2534519814
 C        -7.5448515211        6.6012495489        0.8575926656
 C        -9.1438055834        6.6495334420        1.1311231351
 O        -9.8703068087        6.6880938646        0.1356452924
 C        -9.5643246029        6.8057732427        2.6649138472
 C       -11.1107075670        6.2448121181        2.7256050340
 C       -12.1404031755        7.4743627427        2.6027063405
 O       -12.0021347642        8.4794023637        3.1972950390
 C       -13.4971977106        7.1642749513        1.9910958559
 C       -13.2717478531        6.6753246029        0.5153651173
 O       -12.7273238004        5.5788876426        0.4843415537
 C       -13.7249965172        7.4413837176       -0.6985402860
 C       -12.4685586326        8.0454163915       -1.3073153859
 C       -12.5702666830        8.3606858016       -2.8244217396
 O       -13.6531038883        8.2436797943       -3.3723665782
 C       -11.1680796998        8.6957620474       -3.4740857305
 C       -10.5533169261        7.3545907750       -3.9227734408
 O        -9.7190494023        6.8114697407       -3.2450589874
 C       -11.3365026430        6.5020687293       -4.9376270447
 C       -10.7881078827        5.0402985227       -5.2720418045
 C       -10.9018223833        4.2186826582       -4.0063593986
 O       -11.6698394157        4.6133661616       -3.1765923424
 C       -10.2666456188        2.8388217032       -3.9536079133
 C       -10.1720425409        2.3135981098       -2.3809480328
 O       -10.3064687489        3.0722466913       -1.3904957948
 C        -9.6402886389        0.8688012123       -2.2012812631
 C       -10.2253772503        0.1146086987       -0.9783663097
 C       -10.7866063099       -1.2858339157       -1.3192727659
 O       -11.4200209209       -1.4604338054       -2.3444245388
 C       -10.6141715567       -2.5528415569       -0.3282732035
 C       -10.0124409096       -2.5487282986        1.1511813694
 O        -9.9024963852       -1.6194906408        1.9264424146
 C        -9.6788705563       -3.9820163857        1.7779357612
 C        -8.6789544625       -3.8028796824        2.8190702403
 C        -7.1881726083       -3.6496017656        2.3803202983
 O        -6.7670544059       -4.5124013197        1.6454232841
 C        -6.1803229983       -2.5886247803        3.1027803056
 C        -5.8905511652       -3.0175332408        4.5583921521
 O        -6.7448422166       -2.9217806910        5.3767236583
 C        -4.5104248385       -3.6773965993        4.7342906594
 C        -4.9020674762       -2.5600936779        2.1957999605
 C        -6.7918428579       -1.1188300000        3.1668583853
 C       -11.9986955918       -3.3260189319       -0.2480792013
 C        -9.7396729378       -3.4425976350       -1.2205627838
 C       -11.3149699463        1.8572121325       -4.5688993555
 C        -8.8602614084        2.5813933347       -4.6411918286
 C       -11.5234561019        9.5891922091       -4.7873406766
 C       -10.0582191671        9.3335088516       -2.7449944517
 C       -14.2453769947        6.2788801019        2.9810437317
 C       -14.3579800078        8.4391505324        1.8143781940
 C        -7.2955925690        6.1915147469       -0.5897433094
 C        -6.8743806499        5.7536876435        1.9433258310
 H        -4.9654268603        7.9468894268        1.5052006688
 H        -5.4122836385        9.3038456743        0.2657772960
 H        -5.1072048881        7.6671906244       -0.4052622084
 H        -9.3109067463        7.7564784821        2.9749123869
 H        -8.9477449829        6.0906788048        3.2646686573
 H       -11.2925169775        5.8549526725        3.8016597378
 H       -11.2636198949        5.4447008228        1.9718287632
 H       -14.4099986186        8.2243936028       -0.5594661415
 H       -14.2701766801        6.8620182890       -1.3112011266
 H       -11.6309030947        7.2695396548       -1.1223095577
 H       -12.3733943075        9.0113112487       -0.7386400551
 H       -11.3010576192        6.9567848088       -5.9739982102
 H       -12.2857727343        6.4676319531       -4.6498058822
 H        -9.7237108833        4.8879550868       -5.5006128817
 H       -11.4107358371        4.6076538833       -6.0265814160
 H        -8.5473428685        1.1424004471       -2.0908473102
 H        -9.7142040250        0.3084514983       -3.1197488839
 H       -11.0511463221        0.6191556757       -0.4273687294
 H        -9.5199852014        0.1271468268       -0.1671395782
 H        -9.5941371042       -4.8128298620        1.0792339888
 H       -10.6102492497       -4.3206236454        2.1996916621
 H        -8.7178523820       -4.6228076377        3.5564320505
 H        -8.9392807270       -2.9785204136        3.3512717059
 H        -4.3987885626       -4.1299608633        5.7669492199
 H        -3.6737600539       -3.0627172889        4.3975325930
 H        -4.4720461238       -4.4976867207        4.0560316049
 H        -4.4511303430       -3.4997509269        1.8302852493
 H        -4.2693786301       -1.9343986664        2.8424779147
 H        -5.1082326042       -1.7926671455        1.4478931180
 H        -6.2481630654       -0.4776664622        3.8824458708
 H        -7.8780510305       -1.1838100423        3.3255934311
 H        -6.7454457898       -0.5703871612        2.2270291052
 H       -11.9293165874       -4.3417146468        0.1273453062
 H       -12.3213487626       -3.6782053371       -1.2336738156
 H       -12.8362026600       -2.9784253965        0.3712195265
 H       -10.2131105731       -3.4687145223       -2.2391058249
 H        -9.6397705751       -4.4002082836       -0.6081933508
 H        -8.7694663027       -2.9358615006       -1.3753579783
 H       -12.3083822900        2.2543171760       -4.2636295103
 H       -11.1942185206        0.8299782209       -4.2223967627
 H       -11.4004493977        1.9148005709       -5.6658239495
 H        -8.4671295596        1.5139270146       -4.3939681694
 H        -8.1833986442        3.4253276031       -4.2778595634
 H        -8.9157251784        2.5135491799       -5.7536674039
 H       -10.9985524525       10.5063273735       -4.7296176994
 H       -12.5651305675        9.8307174621       -4.8467858640
 H       -11.1834708626        9.0649586170       -5.6836518540
 H       -10.2360512946       10.3404506795       -2.3395897496
 H        -9.3118595991        9.2845204174       -3.4265059617
 H        -9.7655204308        8.7763166352       -1.8491280256
 H       -13.5835771811        5.4936033531        3.3986438614
 H       -15.0736735125        5.7708833435        2.5466700259
 H       -14.6787054984        6.7923551100        3.8963010121
 H       -14.6824576895        8.7593366710        2.8045081176
 H       -15.2394454689        8.2523910459        1.1993507791
 H       -13.7095434375        9.1799433011        1.2992426827
 H        -6.1979350969        5.8780449482       -0.6820498772
 H        -7.7056759583        6.8642175282       -1.2628760738
 H        -7.7181996112        5.2927663060       -0.8097596730
 H        -5.8295587131        5.5452083427        1.5640570682
 H        -7.3558806366        4.8685811945        2.2648382309
 H        -6.6775144504        6.2156608317        2.8930061734
 Na      -11.0984579279        5.0286808918       -0.8982371229
