117

 C        -5.2453978875        8.1874988858        0.4901857894
 C        -6.8159130762        7.9841655519        0.8712327845
 O        -7.4873421414        8.9594721969        1.0616171011
 C        -7.5008619494        6.5902358623        0.8651277019
 C        -9.0705169289        6.8800866529        1.0148584349
 O        -9.7919819915        6.9660878871        0.0357809823
 C        -9.6930438353        6.8967322637        2.3856372965
 C       -11.1713829444        6.2959837922        2.7614343553
 C       -12.1452790763        7.4640253713        2.6304677184
 O       -11.9179297798        8.5610234380        3.1185642010
 C       -13.6091801263        7.2073528250        1.9135916710
 C       -13.3294393905        6.6778041710        0.4562507163
 O       -12.6685659658        5.6421477674        0.3808246335
 C       -13.6242209002        7.3797752014       -0.8240715901
 C       -12.2811601369        8.1800598007       -1.2990162085
 C       -12.4045791539        8.3581480542       -2.8077628542
 O       -13.4956674724        8.2408799836       -3.3897308969
 C       -11.0896356988        8.6812309734       -3.6167472800
 C       -10.6843707987        7.2780243843       -3.9929077248
 O        -9.7500841575        6.7890700809       -3.2972964659
 C       -11.4482572513        6.4926390048       -5.0738897287
 C       -10.7386438026        5.0641995534       -5.3222931326
 C       -10.8102918178        4.2912290575       -3.9172992907
 O       -11.6972624365        4.6304834708       -3.0670839844
 C       -10.2879507082        2.8257394606       -3.7327668326
 C       -10.0956411089        2.2781716399       -2.3051746678
 O       -10.3418149225        2.9767378656       -1.3516355898
 C        -9.7030663493        0.8427379177       -2.1639300335
 C       -10.1809159459        0.1029785221       -0.8650508207
 C       -10.9742704180       -1.2954144012       -1.1403699689
 O       -11.5402443634       -1.4533766832       -2.2023950832
 C       -10.6035485676       -2.6841367068       -0.2921885809
 C       -10.0377338886       -2.5287053378        1.0945935211
 O        -9.8785041725       -1.5265829541        1.7535316959
 C        -9.4983734113       -3.9351761642        1.8348226626
 C        -8.6099052175       -3.7293225728        3.0096870448
 C        -7.1190897186       -3.7188595864        2.4348016211
 O        -6.7266772282       -4.4281035751        1.5373925813
 C        -6.3128186515       -2.6116573227        3.1264912193
 C        -5.9686412356       -3.2162627610        4.5691469250
 O        -6.7810877425       -3.0514094337        5.4386784921
 C        -4.5458063617       -3.7231068660        4.9053973800
 C        -5.0561092539       -2.5208140130        2.1649926545
 C        -6.9250047783       -1.3055795846        3.3490046351
 C       -12.0048238555       -3.2391230267        0.0354758016
 C        -9.7980690804       -3.5529799523       -1.2539755220
 C       -11.3273212162        1.9052970870       -4.4904304206
 C        -8.9385856042        2.5300058590       -4.4198288602
 C       -11.5486388298        9.6421701019       -4.8485705523
 C       -10.0577174143        9.4018545739       -2.6601154700
 C       -14.1779356007        6.1033682552        2.7665925114
 C       -14.5120215605        8.5864951255        1.8802333298
 C        -7.3558481736        5.8881780873       -0.5539704155
 C        -6.8647964432        5.7117629637        1.9558571234
 H        -4.5854666314        7.4806875361        1.0469474376
 H        -5.0370724609        9.2132991632        0.6685115269
 H        -5.1753235503        8.0974288433       -0.5917138998
 H        -9.5324073065        7.9092700021        2.7144444754
 H        -9.0093962844        6.2506827903        3.0445334718
 H       -11.0611617455        6.1143392004        3.8226217119
 H       -11.4788005597        5.4577795071        2.2794620772
 H       -14.4761874250        7.9315273442       -0.9417360417
 H       -13.8758239564        6.6167989072       -1.5877101458
 H       -11.4810610550        7.4953499001       -1.1102469873
 H       -12.1946044813        9.2162246328       -0.8758877244
 H       -11.5207220688        7.1165635606       -5.9546047226
 H       -12.4755065389        6.3546954656       -4.6880491587
 H        -9.7366483111        5.0449183250       -5.5683299667
 H       -11.2687594373        4.3375989265       -5.9207156941
 H        -8.6402457502        0.9945732799       -2.2892810619
 H       -10.0046890915        0.3228698195       -3.0608190259
 H       -10.7090801387        0.8371930862       -0.1708258169
 H        -9.4274019574       -0.1177855692       -0.2101027533
 H        -8.9806857480       -4.4828470745        1.0876368978
 H       -10.2683573271       -4.7753666555        1.9375673583
 H        -8.7879649902       -4.5458057943        3.7425409954
 H        -8.8238258044       -2.7859559556        3.5676878105
 H        -4.5267517596       -3.7221639777        6.0133010726
 H        -3.9254066686       -2.9358104111        4.5048979542
 H        -4.0851902426       -4.6180466982        4.5414583892
 H        -4.6766222503       -3.5898509011        2.0640032445
 H        -4.3477534666       -1.9115900866        2.6804628134
 H        -5.2313416789       -1.9452565546        1.2201054372
 H        -6.1438212358       -0.5754903277        3.5763220107
 H        -7.7587539110       -1.3402394021        4.0485634174
 H        -7.4439969784       -0.8874863972        2.3715865756
 H       -12.1407604664       -4.1532027541        0.6294258581
 H       -12.4485797598       -3.6722464923       -0.8488247161
 H       -12.5878941212       -2.5643476904        0.5519213410
 H        -9.9929861264       -3.1909476317       -2.2731909338
 H       -10.0539242413       -4.5700037170       -0.9840949660
 H        -8.6755503821       -3.3178143038       -1.0777763739
 H       -12.3536752909        2.2978577792       -4.3452153878
 H       -11.2812774832        0.8238126766       -4.4260722120
 H       -11.1516099993        2.1495770578       -5.4854174036
 H        -8.7209692793        1.4547526739       -4.4595944455
 H        -8.2447457475        3.1565366044       -3.8766794700
 H        -8.9047632767        2.7979819996       -5.5807486124
 H       -10.9719623333       10.4632517242       -4.6271628504
 H       -12.5207773171       10.0551580688       -4.6704016900
 H       -11.4258468842        9.3234892595       -5.8884709939
 H       -10.4486786917       10.2099478982       -2.1048049759
 H        -9.1670105842        9.6651035578       -3.2497542511
 H        -9.7150304306        8.7270763901       -1.8962157658
 H       -13.4236242569        5.2406846581        2.8402559417
 H       -15.0374605899        5.6261452511        2.3030294598
 H       -14.4400418516        6.3447195336        3.7561016224
 H       -14.4870868977        8.8114218597        3.0228989836
 H       -15.5600342750        8.3735437194        1.7044373425
 H       -14.1704344428        9.3883543460        1.2201281164
 H        -6.5109411951        5.3988457970       -0.7059816124
 H        -7.7912586408        6.5058918709       -1.3289621376
 H        -7.9575356524        4.9312555017       -0.5982180908
 H        -5.9170680555        5.4130828072        1.4961055498
 H        -7.4804013889        4.7908582553        2.0835923243
 H        -6.5612680419        5.9263986177        3.0459049394
 Na      -11.2160190479        5.0905401771       -1.0337917868
