117

 C        -5.2362803951        7.7195552469        0.4167973990
 C        -6.6737844252        7.8328774192        0.6563613922
 O        -7.2028897284        8.9203907498        0.6780790488
 C        -7.5144047802        6.4978759110        0.7457465595
 C        -9.0224648023        6.9786040182        0.9093988181
 O        -9.7516978081        7.1138254980       -0.0826165663
 C        -9.5423332256        7.2023155151        2.3436368383
 C       -10.8993150240        6.6192844276        2.4560040916
 C       -12.1831404603        7.6552200895        2.4604713721
 O       -12.0437974238        8.7997368746        2.7717745534
 C       -13.5685216989        7.1474618149        1.9380914531
 C       -13.1997988437        6.7135423137        0.4540380646
 O       -12.7634371979        5.5816970982        0.3466492633
 C       -13.4541018004        7.5233100471       -0.7812551137
 C       -12.4216187636        8.4679554113       -1.3318138614
 C       -12.4587434092        8.4164776897       -2.9005184260
 O       -13.4358041249        8.2014986641       -3.5285089526
 C       -10.9833731545        8.7783245576       -3.7026119875
 C       -10.5672400189        7.2938491187       -4.0199728278
 O        -9.8082029598        6.7433487374       -3.3053635692
 C       -11.2410619301        6.4019781943       -5.2385346274
 C       -10.6635772851        5.0465946521       -5.2926842452
 C       -11.0029356476        4.2003849330       -3.7454503691
 O       -11.8788040699        4.6152486612       -3.1176581831
 C       -10.4123431229        2.7473427234       -3.5971585508
 C       -10.3007724099        2.1671790489       -2.1884574173
 O       -10.3699300265        2.8287589272       -1.1206336655
 C        -9.8977537496        0.6553386983       -2.0081257744
 C       -10.0929392635       -0.0234917079       -0.6460742947
 C       -10.9440836694       -1.2635345301       -0.9357011117
 O       -11.8371082339       -1.2348985747       -1.7699659644
 C       -10.7283175498       -2.6748493788       -0.2186182238
 C        -9.8907924034       -2.5655627357        1.1600889925
 O        -9.6939692489       -1.4081824140        1.5601344931
 C        -9.6404796124       -3.8260904321        1.7726345612
 C        -8.7024253732       -3.8938597027        3.0312356979
 C        -7.2097710725       -3.6722247014        2.5402400599
 O        -6.7702940626       -4.2441809659        1.5709442961
 C        -6.2305522635       -2.6720507045        3.3783424693
 C        -5.8777055722       -3.3401101249        4.7423812046
 O        -6.8744940371       -3.5038162199        5.4333169355
 C        -4.4462278548       -3.7802498659        5.2199773511
 C        -4.9403579347       -2.3521999097        2.4933759530
 C        -7.0842587965       -1.2283110548        3.4412023508
 C       -12.1114952716       -3.1162282995        0.1038765611
 C       -10.1153089869       -3.8415722323       -1.2013950393
 C       -11.4302703183        1.9356017513       -4.4748913615
 C        -9.0071900398        2.6612074660       -4.2232163565
 C       -11.3110791031        9.6143367864       -4.9395414705
 C        -9.8959205383        9.5110906122       -2.8093180096
 C       -14.3395185506        5.9892912331        2.4959767706
 C       -14.4554620936        8.3910351761        2.0530326876
 C        -7.4065926354        5.5595528287       -0.5438396621
 C        -6.9608437509        5.7253197494        1.9515240408
 H        -5.0837413084        6.7549314171       -0.0235596157
 H        -4.6272447102        7.7516422226        1.3300271620
 H        -5.0136117790        8.5375293600       -0.2625982718
 H        -9.6174386983        8.3429943959        2.4616726917
 H        -8.8700216482        6.8446715568        3.1022781190
 H       -11.0220950120        5.9166534551        3.3451463429
 H       -11.0760183851        5.8987695674        1.5745053731
 H       -14.4862986014        8.0941803938       -0.7821752024
 H       -13.7629337752        6.8749507855       -1.6164150084
 H       -11.4432634644        8.0502592990       -0.9988400066
 H       -12.5182364837        9.4943644737       -1.1097259860
 H       -11.1131978362        6.9110402202       -6.2566108467
 H       -12.2892797256        6.3484274823       -5.0141973518
 H        -9.5169825407        5.1741372704       -5.4969661920
 H       -11.0936490714        4.2354722719       -5.9007954816
 H        -8.8266504292        0.6998844813       -2.3344302085
 H       -10.3760822217        0.1224679832       -2.8395712953
 H       -10.2113233802        0.6652377924        0.1506568489
 H        -9.0055723800       -0.2859070657       -0.3274530609
 H        -9.3708020844       -4.4992199098        0.8831207314
 H       -10.5732240535       -4.3219538410        1.8071883876
 H        -8.7952081751       -4.9350491324        3.4085441880
 H        -8.8697235093       -3.2764670526        3.8673136808
 H        -4.3922443177       -3.9044746218        6.3096299496
 H        -3.6586433034       -3.2258886641        4.7362853494
 H        -4.3030081767       -4.7527706457        4.7521071012
 H        -4.2737989165       -3.1505484000        2.5666863650
 H        -4.5319457503       -1.3143375237        2.5896549021
 H        -5.3894025721       -2.3084940679        1.5387603887
 H        -6.7544561221       -0.3514282307        2.8703116655
 H        -7.1542175914       -1.0143934772        4.5262295551
 H        -8.0655176228       -1.3390710161        3.1786327952
 H       -12.2617765514       -4.1218015339        0.3736634971
 H       -12.8148639677       -3.1350200259       -0.6909908930
 H       -12.4467561546       -2.6070787678        1.0331977712
 H       -10.4273051782       -3.5683005029       -2.1686384492
 H       -10.6364584166       -4.7159506067       -0.8778026907
 H        -9.1119366815       -3.9060183018       -1.1390831528
 H       -12.3259010462        1.8932622148       -3.8784168950
 H       -10.9843863808        0.9508453866       -4.6097064879
 H       -11.6306634505        2.2111059121       -5.5580717764
 H        -8.8917119122        1.7920269808       -4.7770559875
 H        -8.2835319170        2.9366363820       -3.5136255166
 H        -8.9628115532        3.4409120906       -4.8874913424
 H       -10.7120146826       10.5630497249       -5.0923506137
 H       -12.3739049047        9.9406318605       -4.9372282284
 H       -11.2296857565        8.8965533750       -5.7558266758
 H       -10.4908119688       10.3189537406       -2.2704891200
 H        -9.2530320050       10.0163584957       -3.4840910326
 H        -9.2325769612        9.0073153189       -2.0587205015
 H       -14.1018981801        5.0328736261        2.1509926290
 H       -15.3872920591        6.0468774659        2.2332538898
 H       -14.2375656394        6.0058750744        3.6216667623
 H       -14.3544713557        8.8998488355        2.9362324838
 H       -15.4337063582        7.9257488194        2.1130223369
 H       -14.4100270122        8.9970416324        1.1424626716
 H        -6.2866944599        5.1399557647       -0.6814653450
 H        -7.9953531033        5.9454104020       -1.4110603513
 H        -7.6178119315        4.5330876541       -0.4016682989
 H        -5.8586691562        5.5180129305        2.0651759640
 H        -7.4966856812        4.8270178872        2.2138235996
 H        -7.0962007778        6.3224497698        2.8134720580
 Na      -10.9530320559        5.3383464309       -1.1816944396
