117

 C        -4.9907141658        7.0161344041        0.1566981598
 C        -6.3929319705        7.4274025472        0.2501528426
 O        -6.7590544637        8.4980510849       -0.1107239396
 C        -7.4001065084        6.4207411329        0.7231833886
 C        -8.9860702742        7.0343667185        0.9168577261
 O        -9.7476340074        7.0398851853       -0.0419332268
 C        -9.4221698299        7.5521639963        2.2669104747
 C       -10.9205412782        7.3168003387        2.5643201186
 C       -11.9971024559        8.2012177309        2.0282789560
 O       -12.0234900543        9.3791597462        2.0616533266
 C       -13.3947478121        7.2050171413        1.5819363524
 C       -13.1937286174        6.8801911253        0.1296885500
 O       -12.3662315169        5.9873929894       -0.1024199006
 C       -13.6544183706        7.8280365171       -0.9463924302
 C       -12.3818069360        8.5628931373       -1.4950117842
 C       -12.3050133111        8.4836311597       -3.1045059727
 O       -13.3557838828        8.2569608896       -3.7386558434
 C       -10.9150395051        8.7155584442       -3.7552781252
 C       -10.4593547271        7.2001343949       -3.8124738414
 O        -9.7344145308        6.6899269906       -2.9887226101
 C       -11.1138928862        6.4673259421       -4.9377798164
 C       -10.6254791955        4.9809164343       -5.0481987773
 C       -11.1827398188        4.0767873346       -3.8199806405
 O       -12.0400705603        4.4993581940       -3.1038831239
 C       -10.5413807701        2.6160478679       -3.7931055167
 C       -10.3703365401        2.0442485153       -2.1997109029
 O       -10.4747208948        2.7671566225       -1.1413749729
 C       -10.0268251529        0.5778691365       -1.9392986863
 C       -10.1642675637        0.0549534882       -0.5546515894
 C       -11.2074692359       -1.1624890260       -0.4906833549
 O       -12.2856657565       -0.8656645445       -1.0490964010
 C       -11.0567136768       -2.5603862743        0.1678055305
 C        -9.8299037481       -2.5877143617        1.2493421688
 O        -9.1798351674       -1.6113413569        1.4926587964
 C        -9.6260293056       -3.9513653869        1.8498103099
 C        -8.7171660741       -3.7951996328        3.0876953520
 C        -7.2839265899       -3.4406290415        2.6241114942
 O        -6.9883522440       -3.8686051857        1.5530494349
 C        -6.2179092095       -2.6230662829        3.6608820526
 C        -6.0783682605       -3.6009231796        4.9234644757
 O        -7.1128664282       -3.9728715455        5.3720878218
 C        -4.7686661168       -3.9272451191        5.7055904988
 C        -4.9732471829       -2.2427027411        2.8225663501
 C        -6.9414609959       -1.3802232115        4.2226849110
 C       -12.4428773633       -3.0590781883        0.7269227235
 C       -10.7100740227       -3.4082874076       -1.0638380742
 C       -11.5093570458        1.7045705430       -4.6183770352
 C        -9.0718744416        2.4799868776       -4.3305445057
 C       -11.0658769778        9.5162416462       -5.2668141410
 C       -10.0500313075        9.5575870472       -2.8490174955
 C       -13.6207190139        5.7904614594        2.2960839691
 C       -14.7071684416        8.0891739240        1.8413036028
 C        -7.5125149590        5.2946711949       -0.3170804139
 C        -7.0490028583        5.7816853455        2.0788391171
 H        -4.4230740819        7.8280105811       -0.2791674221
 H        -4.8595090731        6.1981189943       -0.4018784685
 H        -4.6695603570        6.9472062385        1.1580491440
 H        -9.0497276978        8.6180073692        2.3358043138
 H        -8.8384721389        6.9422505525        3.0149317768
 H       -11.1097775969        6.9749127725        3.6749705290
 H       -11.1486160636        6.3632328403        2.1185170922
 H       -14.3845237536        8.6186542660       -0.5985641920
 H       -14.0516779758        7.2040453390       -1.8607373768
 H       -11.4590738082        8.1365702476       -1.0998878349
 H       -12.3421279258        9.5475845114       -1.1478450001
 H       -11.0272749797        6.8865052727       -6.0236788496
 H       -12.1550506026        6.5084195339       -4.7915920897
 H        -9.5358039871        4.8191517649       -4.7485851032
 H       -10.7782158275        4.7998605188       -6.1209634989
 H        -9.0135128444        0.4715851872       -2.3769887605
 H       -10.6953228505        0.0515397168       -2.6277239740
 H       -10.6612273510        0.8605762368        0.0281602719
 H        -9.1788316341        0.1551027676       -0.0640638728
 H        -9.2388061134       -4.6610167438        0.9833951699
 H       -10.5693943795       -4.4657540629        1.8338618542
 H        -8.5344888411       -4.8425084021        3.5541913434
 H        -9.0267700053       -3.1567007557        3.8748509791
 H        -4.6721375153       -5.0324278692        5.9417529069
 H        -4.8399993211       -3.4378603381        6.6819750893
 H        -3.9371565223       -3.5623239444        5.1918379736
 H        -4.8686529081       -3.0776016945        2.1119057773
 H        -4.0866805314       -1.9023281743        3.4344963278
 H        -5.3978572618       -1.4554296073        2.1857881103
 H        -7.8823242813       -1.0977119748        3.6749619594
 H        -6.2552288283       -0.4862841767        4.1696165217
 H        -7.3736796888       -1.6148232662        5.1961655424
 H       -12.4215405552       -4.0696640016        1.1005045674
 H       -13.2701877181       -3.0906370567        0.0264342158
 H       -12.8933724673       -2.4688723520        1.5375242906
 H       -11.6660875988       -3.6619432370       -1.4713355198
 H       -10.1680336564       -4.3234003390       -0.7760512352
 H       -10.0966599256       -2.7842634597       -1.6687726464
 H       -12.3018384613        1.4675727155       -3.9233737393
 H       -11.0372767168        0.7587125694       -4.7453784727
 H       -11.7205733165        2.0130358527       -5.6168725795
 H        -8.5875416275        1.6040372864       -4.0824161898
 H        -8.5733611613        3.3364452692       -4.0420256925
 H        -9.1602137506        2.5495927847       -5.4312482539
 H       -11.1054014711       10.5853687942       -5.1593951509
 H       -11.9608817306        9.1509930121       -5.8001050343
 H       -10.2282218797        9.3327098768       -5.9540911258
 H       -10.2935784160       10.6360831464       -2.9821823705
 H        -9.0430925917        9.4929735072       -2.9521682576
 H       -10.1654391585        9.3122458097       -1.7738631461
 H       -12.8700990401        5.0350736601        2.0369838679
 H       -14.5669978802        5.3498595660        2.1360488330
 H       -13.4487282543        6.0148865869        3.3660527407
 H       -15.0136653438        8.0096458686        2.9156329828
 H       -15.4852198654        7.5707388577        1.3013921146
 H       -14.5681208746        9.1857252822        1.6308389299
 H        -6.6954515015        4.5208940114       -0.4136604280
 H        -7.5884511344        5.6847977488       -1.4721715428
 H        -8.3786463294        4.5902851044       -0.2182281101
 H        -6.3300825064        4.9098688985        2.1633261854
 H        -7.8896395225        5.2046703697        2.4387516768
 H        -6.6915872256        6.4135505032        2.9402111108
 Na      -10.6989652799        5.1770164016       -1.4743776573
