117

 C        -4.8906634416        6.8851428823        0.1980062230
 C        -6.4191723028        7.3331342312        0.1779991263
 O        -6.7492499350        8.4022016438       -0.2468837613
 C        -7.6220745227        6.1936428704        0.7679451376
 C        -8.8770777782        7.0050148408        0.9843040036
 O        -9.6619943459        7.0910405462        0.0519525674
 C        -9.3012552272        7.8167193791        2.2803171294
 C       -10.9082700462        7.3482373685        2.5473281199
 C       -12.1099836176        8.2004346453        1.9341560827
 O       -12.1162369861        9.4233872718        1.7551354117
 C       -13.2747910605        7.2623510075        1.6407687307
 C       -12.9618719238        7.0206453758        0.1104461942
 O       -12.3504287641        5.9680674785       -0.0830066291
 C       -13.5427274231        7.8793362909       -1.0240242759
 C       -12.3758836288        8.6112926908       -1.6015131527
 C       -12.3722616310        8.6832135666       -3.2198952065
 O       -13.3866897311        8.2470695103       -3.8001738094
 C       -10.8929433191        8.7951937518       -3.7739704375
 C       -10.5019165801        7.3298620777       -3.9204725613
 O        -9.6924545863        6.8596493508       -3.1218863666
 C       -11.2707291992        6.3382088683       -4.9164214466
 C       -10.6022470624        4.8820119401       -5.0293335497
 C       -11.0096899048        4.0145584104       -3.8536925461
 O       -11.9934675128        4.3403394351       -3.2023561891
 C       -10.5045526405        2.5462798207       -3.7043335429
 C       -10.3372318948        1.9773658808       -2.3051407546
 O       -10.4229330928        2.7519525243       -1.3297718688
 C       -10.1317823126        0.4840620783       -2.0401042118
 C       -10.3800718980        0.1790157660       -0.5553751531
 C       -11.4314446366       -0.9236104045       -0.3702094196
 O       -12.5098173111       -0.7510904755       -0.8150027373
 C       -11.0014503753       -2.4095294664        0.2070936658
 C        -9.8402795415       -2.4918563876        1.1982390388
 O        -9.1300644806       -1.5631963716        1.5141348009
 C        -9.5038851864       -3.8774725860        1.9196890628
 C        -8.7033471288       -3.6945256869        3.1805982718
 C        -7.3080750149       -3.4779022051        2.6969733270
 O        -6.9339990455       -3.6456375479        1.5369906733
 C        -6.3580731373       -2.7011673482        3.6679211901
 C        -6.2265454914       -3.6808333654        5.0205851169
 O        -7.2076591060       -4.2217118376        5.4698824559
 C        -4.8396919670       -3.9260790269        5.6805422008
 C        -5.0038118675       -2.2864072030        2.9275864558
 C        -7.0274466225       -1.4065012242        4.2326509505
 C       -12.2687453138       -2.9822289588        0.8948961773
 C       -10.7760335961       -3.4747908248       -1.0700156439
 C       -11.4660044790        1.6434861626       -4.4483730430
 C        -9.0913477826        2.2359094859       -4.3639206317
 C       -10.9724753236        9.4469701703       -5.1328102380
 C        -9.9495785670        9.5413772214       -2.8684955759
 C       -13.4544082692        5.8912786696        2.1942007383
 C       -14.6300293665        8.0358033567        1.8642554964
 C        -7.5996434895        5.1374770227       -0.3723172903
 C        -7.0111414095        5.8644301486        2.1025336984
 H        -4.1778041008        7.7058051047        0.3083879287
 H        -4.7221821543        6.4101445979       -0.7822839234
 H        -4.6731091641        6.2358153313        1.0217108044
 H        -9.2451371913        8.8557362290        2.1488656864
 H        -8.6810535296        7.4620428979        3.1925807707
 H       -11.0313244068        7.4969083346        3.7354394508
 H       -11.1359501544        6.2100240403        2.5749300607
 H       -14.1730363067        8.5701061061       -0.6012335058
 H       -13.9702371246        7.2486465366       -1.8116170857
 H       -11.3856559598        8.1751684072       -1.3463241420
 H       -12.2548339921        9.6013756118       -1.0562500847
 H       -11.3979809768        6.6195614335       -5.9884237132
 H       -12.2899343351        6.2851138805       -4.5919184118
 H        -9.4871508484        4.8495364807       -5.0040816541
 H       -10.9368687086        4.5794661125       -6.0912979016
 H        -9.0500109625        0.3936903368       -2.3750042537
 H       -10.7405650638       -0.0849536356       -2.7358934460
 H       -10.6323871495        1.1560836728       -0.0103662317
 H        -9.4926262202       -0.0532676182       -0.0509414714
 H        -8.9925374244       -4.5899690590        1.3029044884
 H       -10.4393431881       -4.4408523863        1.8878085135
 H        -8.6505377898       -4.6469250335        3.6785545620
 H        -8.8731830589       -2.9386782243        3.9135574371
 H        -4.4568871548       -4.8956260979        5.3168642549
 H        -4.9195544706       -4.0529653789        6.7795567354
 H        -4.1862269129       -3.1310688138        5.3560840343
 H        -4.6678444216       -3.1135808501        2.2588455166
 H        -4.3244078257       -1.8466906713        3.5634311807
 H        -5.4932264527       -1.6274367348        2.2124702711
 H        -7.8788343421       -0.9265483411        3.8618076524
 H        -6.2098188148       -0.7504232574        4.2044018505
 H        -7.2922443676       -1.6499416918        5.3384518282
 H       -12.2238055289       -4.0686281735        1.1495360873
 H       -13.2209841183       -2.8262707754        0.3799616093
 H       -12.5407840245       -2.4963545774        1.7653308949
 H       -11.6633517886       -3.3571406392       -1.5727622766
 H       -10.8750617853       -4.3759784212       -0.6215857676
 H        -9.8234969492       -3.4004001034       -1.5671758566
 H       -12.5193370861        1.6893969614       -4.0720883052
 H       -11.2129937352        0.5371170576       -4.3611734163
 H       -11.2944533636        1.8892296551       -5.4534604085
 H        -8.7471230775        1.2377598335       -4.3880072048
 H        -8.3537277861        2.8210168556       -3.8561503661
 H        -9.2150415117        2.6503231019       -5.3435856755
 H       -11.6047458813       10.2917838650       -5.0322143519
 H       -11.3174604722        8.7986083622       -5.9902169219
 H       -10.0132597841        9.9539572875       -5.4547414720
 H       -10.3341145659       10.5134040671       -2.5796418263
 H        -8.9489648062        9.8444273066       -3.3221450849
 H        -9.6834410009        8.9461742052       -1.9965525558
 H       -12.8450402527        5.0903497528        1.6365574354
 H       -14.4803194656        5.6025588843        2.0977607076
 H       -13.1744694634        5.7844195104        3.2146681992
 H       -14.8180613864        8.1500682886        3.0014002768
 H       -15.3154871582        7.3114233608        1.5694097602
 H       -14.7070017534        9.0061501119        1.4824225496
 H        -6.6631508843        4.7017538554       -0.6060768026
 H        -7.8427282133        5.5645611809       -1.3465238285
 H        -8.3391066428        4.2249596592       -0.3089086567
 H        -6.0088119401        5.5793550164        1.9887628662
 H        -7.2552804202        4.9935356960        2.6424382070
 H        -7.0004815739        6.6510456724        2.8719792825
 Na      -10.8098760367        5.0932316994       -1.4028533790
