117

 C        -4.9561005541        6.7861467749        0.1134696451
 C        -6.4404146010        7.2126178322        0.1550713819
 O        -6.7719075185        8.2785117854       -0.3741545314
 C        -7.4047673137        6.2964096360        0.8287666857
 C        -8.9526449499        7.0290892024        0.8618449500
 O        -9.7432689305        7.0241005781       -0.0358734410
 C        -9.3544362169        7.9671846373        2.1111821666
 C       -10.7291368642        7.5644179233        2.6940896109
 C       -11.9807787117        8.1679543199        1.9767228050
 O       -12.0715774929        9.2501092335        1.4773149416
 C       -13.3867062510        7.1087812367        1.5753648359
 C       -13.0437772053        6.9524433469        0.0665083781
 O       -12.2947869043        6.0718319830       -0.2663568729
 C       -13.4600964562        7.9270722182       -1.0664811745
 C       -12.3351663388        8.7156956004       -1.6626532626
 C       -12.3597120161        8.6380443432       -3.1895265104
 O       -13.2479400436        8.4077852730       -3.9060016321
 C       -10.9581627494        8.8532312469       -3.8632334540
 C       -10.5467874170        7.2240137546       -3.9736985531
 O        -9.6559008485        6.8402382020       -3.2316856788
 C       -11.2774344050        6.2227320150       -4.8561513828
 C       -10.4835007383        4.9069246566       -5.0132919078
 C       -10.9390960537        3.8675855707       -3.9596058676
 O       -11.9168799064        4.1055700098       -3.2037922077
 C       -10.4681420990        2.3909144547       -3.8712607708
 C       -10.3742241628        2.0407958788       -2.2481958465
 O       -10.3338568802        2.8643053256       -1.4582358200
 C       -10.2249414515        0.4745870206       -1.9666462242
 C       -10.4763562099        0.1241633437       -0.4272369751
 C       -11.5547261066       -0.9739880642       -0.3962000340
 O       -12.7087519578       -0.7072310110       -0.5107043085
 C       -11.1036060135       -2.3469496561        0.2289326139
 C        -9.8531000119       -2.4162049099        1.1957478982
 O        -9.1449378931       -1.4524753969        1.4975871793
 C        -9.6245792627       -3.8584726686        1.9078115599
 C        -8.7641515178       -3.7026847644        3.0667434905
 C        -7.3083543143       -3.2866937488        2.7189331550
 O        -6.7784225123       -3.4644920316        1.6391801368
 C        -6.4037159711       -2.7568032715        3.8660824198
 C        -6.2544790665       -3.7909513371        4.9751352269
 O        -7.2271679366       -4.3786218628        5.5024551707
 C        -4.8977917478       -3.8963366333        5.5541770059
 C        -5.0485163450       -2.4824954950        3.2252012723
 C        -7.0809680833       -1.4317403128        4.3186788762
 C       -12.2091259195       -2.8020943570        1.1127684230
 C       -10.8038742527       -3.3140778473       -0.9990171023
 C       -11.6403706291        1.5115635538       -4.5134486366
 C        -8.9703126124        2.1722954758       -4.5031435477
 C       -10.9703042546        9.5170780744       -5.2439007144
 C        -9.8603979203        9.5042217954       -2.9482350360
 C       -13.2569174132        5.9728287898        2.4678699396
 C       -14.6058770396        8.1314154408        1.8501526251
 C        -7.7426222940        5.1617464113       -0.1239336049
 C        -6.9247787246        5.6736751133        2.2457861869
 H        -4.3769300340        7.3850919219        0.8168336521
 H        -4.5869034703        7.0162403758       -0.9817212401
 H        -4.8127042282        5.7040140177        0.4653293733
 H        -9.4812083322        8.9712551885        1.6982835705
 H        -8.6555324944        7.9207043890        2.8830642994
 H       -10.6093243431        7.7672412489        3.7213815921
 H       -10.9573428344        6.4491757567        2.8253483525
 H       -14.2392368251        8.5834818723       -0.7050859438
 H       -13.6695517298        7.3179475695       -1.8307787376
 H       -11.3231498933        8.4632979636       -1.2746123946
 H       -12.2969257492        9.8596410660       -1.4331298937
 H       -11.4616006809        6.5776554983       -5.7905639693
 H       -12.3657692631        6.1048435445       -4.4890012272
 H        -9.4414080555        5.0716925846       -5.2980426147
 H       -10.9406929320        4.4718140605       -5.9512100172
 H        -9.2559800181        0.2620909364       -2.4217667534
 H       -11.0072526798       -0.0156635324       -2.5931584276
 H       -10.7064136297        1.0050257702        0.1821763666
 H        -9.5538231469       -0.2996938519        0.1020863935
 H        -9.4603675284       -4.6280180896        1.2918796896
 H       -10.6699392529       -4.1155905501        2.1466854038
 H        -8.7394665732       -4.5240349843        3.6840499939
 H        -9.1198675707       -2.8062458769        3.6333863635
 H        -4.2269620543       -4.2822136372        4.8365468031
 H        -4.8895002887       -4.6177162625        6.3711510411
 H        -4.5809464866       -2.8029907125        5.7653265822
 H        -4.5489007114       -3.3536966049        2.9505545455
 H        -4.5148418837       -1.9181731143        3.9570894847
 H        -5.3350976202       -1.9920418660        2.3214302275
 H        -7.6372186157       -1.0328958703        3.4697627329
 H        -6.3237028924       -0.6995154577        4.4487847865
 H        -7.7729962804       -1.4833016542        5.1105620865
 H       -12.2790487383       -3.8869060354        1.2549387773
 H       -13.1955154461       -2.3903487374        0.9109140845
 H       -12.1598969511       -2.3379120040        2.0956367307
 H       -11.3795228065       -2.9853238038       -1.8359445809
 H       -11.1811456442       -4.2669140480       -0.7141806297
 H        -9.7608291615       -3.3855002353       -1.0447137701
 H       -12.5542264251        1.9891779503       -4.1843301868
 H       -11.8844057095        0.4093353969       -4.3750251792
 H       -11.4570725363        1.8356105440       -5.5951494561
 H        -8.8299594254        1.0656464883       -4.7666938141
 H        -8.0898308341        2.3635236092       -3.7477757795
 H        -8.8885313241        2.7813802397       -5.3438107239
 H       -11.9273958343       10.1144448227       -5.3981654504
 H       -10.7334932375        8.8916865590       -6.1012809499
 H       -10.2830827686       10.3630124160       -5.2401737130
 H       -10.1710341893       10.2399855970       -2.2310955631
 H        -9.1118807306       10.1916608454       -3.5022800397
 H        -9.2492466762        8.7346577773       -2.4730816618
 H       -12.4879324809        5.3145164143        2.1081583436
 H       -14.2317514746        5.3857544688        2.4072649385
 H       -13.0536500590        6.1791935208        3.5184627469
 H       -14.5636292239        8.3449973210        2.8615170221
 H       -15.5337440732        7.5843989467        1.6953176524
 H       -14.5014456556        9.0937056102        1.4331065913
 H        -6.9291445274        4.6526067822       -0.7230332401
 H        -8.2741902806        5.3551225487       -0.9318895665
 H        -8.2951259102        4.4881053115        0.4710931910
 H        -5.9419400134        5.3042261912        2.2917875957
 H        -7.4035926242        4.7558861509        2.5383861212
 H        -7.1033463043        6.2911924825        3.0512448184
 Na      -10.7954474095        5.1315854927       -1.3081089308
