117

 C        -4.9649913684        6.7321071889        0.0131893482
 C        -6.4677617306        7.1995053987        0.1326864289
 O        -6.8151159951        8.1601626030       -0.4677479333
 C        -7.6529648366        6.3081844303        0.9534525848
 C        -8.9232270073        7.1253284066        0.8922739909
 O        -9.6427359684        6.8345455527       -0.0502506039
 C        -9.4037144751        8.1453790992        1.9792646681
 C       -10.6994370360        7.7772881294        2.6605875565
 C       -11.8935064848        8.0611888059        1.7772322536
 O       -11.8341940021        9.1821758472        1.3378816688
 C       -13.1830923578        7.2208669508        1.6461337391
 C       -13.1040244300        6.9608023563        0.0160639378
 O       -12.3799846511        6.0313298164       -0.2227050929
 C       -13.6600040703        7.9548593391       -1.0903625153
 C       -12.3884171037        8.7867628892       -1.6897835333
 C       -12.2226358103        8.7252364698       -3.1906703365
 O       -13.2005022671        8.5613636088       -3.8848071349
 C       -10.7491088147        8.7275737896       -4.0457519206
 C       -10.4304422055        7.1529559650       -4.0184158898
 O        -9.6281646659        6.6898416426       -3.2052047382
 C       -11.2604129575        6.2465068613       -4.8888877344
 C       -10.5142974951        4.8512398291       -5.0184372322
 C       -11.0171222118        3.7285804199       -4.0725093127
 O       -11.8132595843        4.0483726077       -3.1811072201
 C       -10.4531268861        2.3198503362       -4.0112141261
 C       -10.3255335103        1.9934370419       -2.3460670745
 O       -10.2172490110        2.8546033363       -1.4958514412
 C       -10.3507248182        0.5390839951       -1.9912892058
 C       -10.5277759823        0.2825060219       -0.4685700806
 C       -11.5648692858       -0.9088847052       -0.0951480265
 O       -12.7626349100       -0.6703260465       -0.3171211323
 C       -11.2085257142       -2.3739703144        0.3596753206
 C        -9.9403724166       -2.3986548123        1.2033110889
 O        -9.2110339933       -1.4619884214        1.4836172834
 C        -9.7154043028       -3.6731739484        1.8654418817
 C        -8.7970018409       -3.7108404679        3.0128226867
 C        -7.2388037583       -3.2592586907        2.7067909048
 O        -6.8335123872       -3.4070799443        1.5921102470
 C        -6.3550920666       -2.6678836817        3.9375931152
 C        -6.3130004903       -3.8060555260        5.1343033158
 O        -7.2538494204       -4.4956800572        5.4303046104
 C        -4.8205875233       -4.0047716747        5.7301404488
 C        -4.9517458103       -2.4552577750        3.3811132068
 C        -7.1579684715       -1.4105703307        4.4830749342
 C       -12.4497579285       -2.7548351004        1.3236079194
 C       -10.8693506547       -3.1994464091       -0.9809093752
 C       -11.5730744133        1.4987387178       -4.6459844932
 C        -9.0954401012        2.0581988782       -4.5804723497
 C       -11.0447622065        9.4670825627       -5.3820493482
 C        -9.7535403710        9.4734088737       -3.0390909035
 C       -13.1996517751        5.9876878298        2.6604066439
 C       -14.4651345886        8.1090004768        1.8479092320
 C        -7.8080714635        4.9978658250        0.0406740862
 C        -7.1075426926        5.7109803339        2.2173810048
 H        -4.4696735555        6.6349507706        1.0415040991
 H        -4.4862805173        7.4624276035       -0.6182811229
 H        -4.9330271802        5.6684562203       -0.3839073318
 H        -9.5800459733        9.0941649722        1.3997075885
 H        -8.6550548928        8.2088266487        2.7003026924
 H       -10.7125972882        8.3384768877        3.5192857766
 H       -10.7214433819        6.8591199811        3.0522862766
 H       -14.2783111652        8.6415910480       -0.4620255521
 H       -14.0888990202        7.3405282469       -1.9007894629
 H       -11.4559068175        8.4700386557       -1.1820642146
 H       -12.3646804902        9.8230642315       -1.4508230201
 H       -11.6765875296        6.7234864542       -5.8092158852
 H       -12.1934393214        6.1226151704       -4.2898052395
 H        -9.5663338442        5.1550185680       -4.5365703092
 H       -10.1752863809        4.5131682003       -5.9404535137
 H        -9.3974541102        0.2258904414       -2.3708484751
 H       -11.1515423113        0.0746193082       -2.6030246454
 H       -10.8284543941        1.1696151842        0.0651562784
 H        -9.5354060149       -0.0175750482        0.0717521632
 H        -9.2583527072       -4.1782041510        0.9490752026
 H       -10.6304389744       -4.2006859687        1.8871796113
 H        -8.7588894281       -4.7867090475        3.3328324325
 H        -9.1837357369       -3.0797361561        3.8077106588
 H        -4.0316450079       -3.9981515756        4.9507916380
 H        -4.8234373252       -5.0310811393        6.0751765830
 H        -4.5407797100       -3.2198184303        6.4183873462
 H        -4.5288819180       -3.4006989114        3.2302074949
 H        -4.5315035141       -2.0594817217        4.3217252168
 H        -4.9298076456       -1.9462361419        2.4472856190
 H        -7.2536530557       -0.7779394523        3.5717815489
 H        -6.5789039030       -0.7695145837        5.1643282462
 H        -8.0892168121       -1.6121157539        4.8533795757
 H       -12.7036744376       -3.7870175687        1.3806945817
 H       -13.3212015810       -2.1493170814        1.0713641093
 H       -12.4289340018       -2.3742196430        2.3935736704
 H       -11.3078558702       -2.6855403245       -1.8511805635
 H       -11.2871771001       -4.2598899409       -0.8880664663
 H        -9.8073756909       -3.2806780371       -0.8815399720
 H       -12.4751754516        1.8530180850       -4.1182049989
 H       -11.6363450516        0.4291553252       -4.4751169408
 H       -11.6338079960        1.7594458675       -5.7726841428
 H        -9.1329399791        0.9716706733       -4.9142197363
 H        -8.2683116424        2.0376051158       -3.8426484126
 H        -8.8853279924        2.7729743317       -5.4738479110
 H       -12.1434951115        9.5057138429       -5.6030864487
 H       -10.5004790299        9.0726153894       -6.2157734404
 H       -10.8660051755       10.5195945284       -5.2945232058
 H       -10.2794393765       10.1565065282       -2.3539085119
 H        -9.2509781032       10.2166818378       -3.5075163786
 H        -9.0042865902        8.8767903426       -2.4891362252
 H       -12.3362687515        5.3814725683        2.5881508657
 H       -14.1027157441        5.4006984120        2.3924912870
 H       -13.2828161382        6.2375811150        3.7598062666
 H       -14.5779097011        8.3304088207        2.8611596525
 H       -15.2696347159        7.4468444530        1.5408930086
 H       -14.4203193708        9.1412302261        1.4444764166
 H        -6.7883755471        4.6330644894       -0.1671708472
 H        -8.0307878348        4.9756104437       -1.0774718891
 H        -8.4336599660        4.3350422002        0.4962214914
 H        -6.1612300950        5.1943877190        1.9971971409
 H        -7.6176307145        4.8869577280        2.6706427300
 H        -7.0305754371        6.3825256158        3.0330233953
 Na      -10.6374070957        5.2207736870       -1.3715091796
