117

 C        -5.1339497982        6.1078874315       -0.1191530805
 C        -6.5888580105        6.6857427105        0.0612307823
 O        -6.9993141939        7.6498004534       -0.5341617895
 C        -7.6310171942        5.9158103106        1.0282864552
 C        -9.0152221915        6.7762006886        0.9575621210
 O       -10.0321244934        6.5189036402        0.4033699795
 C        -8.9165034259        8.3607613785        1.3966680910
 C       -10.2595327708        8.6172251865        2.1970938484
 C       -11.5273088583        8.6906024225        1.3852299670
 O       -11.7476448642        9.6110459404        0.6809261659
 C       -12.6034259305        7.6040405554        1.4492726803
 C       -12.6341555784        6.9556667370        0.0631671782
 O       -12.4548286949        5.7556712888        0.0080560106
 C       -13.0736404568        7.7568915302       -1.2379902572
 C       -11.8929855708        8.0960931573       -2.0670789281
 C       -12.0804343140        8.5159562299       -3.5223240591
 O       -13.1617208382        8.7274119643       -3.9308218493
 C       -10.7201895769        8.4552327894       -4.4187808038
 C       -10.3330124601        7.0248931833       -4.3785250285
 O        -9.8400520142        6.5120588472       -3.3955463773
 C       -10.7731305318        6.1354727043       -5.5585870236
 C       -10.1250080014        4.6711893399       -5.4464545682
 C       -10.8039067286        3.7896624119       -4.2661119581
 O       -11.6222634935        4.3329005567       -3.5829130451
 C       -10.6806962117        2.2307595674       -4.0593836960
 C       -10.5000995422        2.0330761147       -2.4682647409
 O        -9.6944665414        2.6183496004       -1.7559543840
 C       -11.4519026455        0.9662457989       -1.6971854152
 C       -10.6399153124        0.1995648090       -0.6350194603
 C       -11.7566948662       -0.3670723531        0.3862176114
 O       -12.6806047369        0.2840943954        0.8542887160
 C       -11.5115987452       -1.9350492281        0.7212304279
 C       -10.2333751771       -1.9051268422        1.5565415706
 O        -9.9756379921       -0.8937979822        2.2296133279
 C        -9.3148786104       -3.1051626423        1.6358939957
 C        -8.8412984232       -3.4494722399        3.1743892235
 C        -7.2604045343       -3.1037711326        3.0306528111
 O        -6.7711380764       -2.8004497982        1.9684816319
 C        -6.4507611860       -2.9176370377        4.3398637273
 C        -6.3294645618       -4.2153846960        5.1340566192
 O        -7.2611134488       -5.0008579000        4.9829954747
 C        -5.3447764136       -4.5179836309        6.2948467853
 C        -5.0397994534       -2.2927272280        3.9878117169
 C        -7.3607659602       -1.7151555214        4.9500124147
 C       -12.6845126224       -2.4674800716        1.6359352319
 C       -11.4735406024       -2.9485598482       -0.5301812273
 C       -11.9328614538        1.5981026145       -4.7257271820
 C        -9.3587710263        1.6336336029       -4.6259046157
 C       -11.0888089090        9.0119287569       -5.8249886062
 C        -9.5058384498        9.3646789667       -3.9127820173
 C       -12.5105493236        6.4880113906        2.4590106236
 C       -14.1012508894        8.2095491013        1.7901452444
 C        -7.8074117056        4.4491370300        0.5001675296
 C        -7.1846517347        5.9270674362        2.5310405082
 H        -4.7103239094        6.2606580163       -1.0647125327
 H        -5.0583589684        5.0629599424        0.1401446828
 H        -4.6440239330        6.6125510775        0.6979626499
 H        -8.9087506660        8.9886279886        0.4596435473
 H        -8.0250522854        8.6305697765        1.9382919760
 H       -10.0327389781        9.6698719478        2.5364954383
 H       -10.3026533440        7.7642142971        2.9872564094
 H       -13.6764876107        8.6190185709       -0.7756994440
 H       -13.7662665123        7.1534441704       -1.8656491577
 H       -11.2788558967        7.2708514317       -2.0029310937
 H       -11.2905880567        8.8548651999       -1.5273447869
 H       -10.6984114169        6.4571019967       -6.5396176244
 H       -11.8992761457        5.9574752955       -5.5372976650
 H        -9.0738922865        4.7284882296       -5.3686975393
 H       -10.3067600508        4.2785403745       -6.4798289480
 H       -11.6707881830        0.1746277879       -2.4370983282
 H       -12.3174403266        1.4363678997       -1.3065678782
 H       -10.1041337991        0.9697959469       -0.1505839555
 H       -10.0464490285       -0.6708995458       -0.9672721140
 H        -8.3338906919       -2.9034715983        1.1552400333
 H        -9.7935957139       -4.0588238043        1.1010316634
 H        -8.9749673429       -4.4881577958        3.4884176723
 H        -9.3591995098       -2.6744440298        3.8843589875
 H        -4.6633246652       -5.2762379456        6.0696898741
 H        -5.9774267250       -4.8414477464        7.1145030048
 H        -4.7749461176       -3.5500461253        6.4746789997
 H        -4.3244105043       -3.0620637384        4.1828226063
 H        -4.9053246895       -1.3384389669        4.5058207788
 H        -5.1787757090       -1.9681005667        2.9429685207
 H        -7.7426983585       -1.0740673709        4.0779878304
 H        -6.8236902882       -1.1269082161        5.7303996108
 H        -8.2225372115       -2.0585914908        5.4753864417
 H       -12.5261720557       -3.5423671447        1.9149024919
 H       -13.6642713877       -2.4489857450        1.0976679866
 H       -12.7526285739       -2.0022083147        2.6376765980
 H       -11.9841107894       -3.9149109553       -0.2565963482
 H       -10.4316793205       -3.0072671993       -0.9438433265
 H       -12.2348822714       -2.5174522182       -1.2384903463
 H       -12.7659714641        2.0296658308       -4.2566343288
 H       -12.0248710441        0.4878597710       -4.5442606694
 H       -12.0674202973        1.8894787665       -5.7855166922
 H        -9.3961546499        0.6976592564       -5.1648025677
 H        -8.5310161947        1.7114143962       -3.8833129957
 H        -9.0511099632        2.3725167565       -5.3375923039
 H       -12.0871046376        8.5946018679       -6.1008533954
 H       -10.4214800053        8.7389944182       -6.5857863738
 H       -11.0684924405       10.0682382487       -5.7566561858
 H        -9.6193286837       10.3855766812       -4.1672695319
 H        -8.5459985951        8.9217015424       -4.2109135188
 H        -9.4720085301        9.3022688721       -2.8376349168
 H       -11.5448553995        5.9890986919        2.3739308668
 H       -13.3297579134        5.7087244646        2.3093175644
 H       -12.5921018654        6.9252832775        3.4279777586
 H       -14.2503992098        8.5397772517        2.8037478070
 H       -14.7615472862        7.3028686191        1.5353785580
 H       -14.5044073646        8.8611553714        0.9934974865
 H        -6.6773009019        3.9325173071        0.5036424337
 H        -8.2012884086        4.2413327185       -0.5428673306
 H        -8.4815545382        3.9221231230        1.1979041929
 H        -6.1266669132        5.7682923508        2.7635234890
 H        -7.9132756567        5.3455794615        3.2013453852
 H        -7.2444188468        6.9480968637        2.9021663224
 Na      -10.7503909616        4.7354485029       -1.2202288698
