117

 C        -5.0473503122        5.8356604364       -0.0186553775
 C        -6.4522194828        6.5806797968        0.0487365961
 O        -6.8705485539        7.4934342175       -0.6562192234
 C        -7.4995211744        6.0142662394        1.0988393167
 C        -8.9214164858        6.7780386082        0.9315774521
 O        -9.7850076712        6.0947717906        0.3317504316
 C        -9.0791086103        8.1961133495        1.4022066091
 C       -10.2829098815        8.8663944908        1.9850914781
 C       -11.5482711560        8.6853506101        1.2253412034
 O       -11.8042686494        9.7509124560        0.5823908147
 C       -12.6283354849        7.6762761657        1.5084189019
 C       -12.6539848455        6.8511378942       -0.0037973080
 O       -12.5677795070        5.6401084632        0.0282383551
 C       -12.9368701416        7.6833921574       -1.3036762095
 C       -11.6051320051        8.2587343770       -2.0698322409
 C       -11.9322423455        8.5153416494       -3.5380110504
 O       -13.0521634115        8.6183369540       -3.9606500798
 C       -10.6727902671        8.2252786647       -4.7326986676
 C       -10.3157373935        6.7186359360       -4.6434696590
 O        -9.7512630370        6.3010988459       -3.6180163898
 C       -10.6416256309        5.8427720487       -5.7840206778
 C       -10.1956923344        4.4379647161       -5.4414203019
 C       -10.7739921894        3.9472925359       -4.2029034605
 O       -11.3900992669        4.6495566949       -3.4048385962
 C       -10.7062092764        2.2445217308       -4.0464038118
 C       -10.6842031343        2.0720081882       -2.4148498214
 O        -9.9083530516        2.8350989176       -1.8463373989
 C       -11.7064930598        1.1534101203       -1.7255194055
 C       -10.9676317282        0.2284930483       -0.7628639308
 C       -11.9143881772       -0.3403820911        0.3801771480
 O       -12.5134984705        0.4446703406        1.0206151472
 C       -11.7452931321       -1.8274721846        0.7998705222
 C       -10.3190667107       -1.8095917630        1.8372097521
 O       -10.0301571317       -0.8795257296        2.5228855463
 C        -9.4754184626       -3.0847648441        1.7606939177
 C        -8.6216401775       -3.4370108846        2.9329311222
 C        -7.2031410716       -2.8539061750        2.9425535342
 O        -6.4699267577       -2.7284511557        1.9657683447
 C        -6.5153568066       -2.7480119401        4.4769890268
 C        -6.5845615866       -4.2757737958        5.1527063303
 O        -7.3093618949       -5.1474223560        4.7290013528
 C        -5.6374322542       -4.4299042861        6.3124293762
 C        -5.0718882180       -2.3334399979        4.2959522796
 C        -7.2095869744       -1.8708631010        5.5953946133
 C       -12.9465858990       -2.1573662656        1.8081397034
 C       -11.5700777098       -2.7751384901       -0.3734382206
 C       -11.9878929620        1.7110083765       -4.7103933159
 C        -9.4018963530        1.6249431889       -4.6996596333
 C       -11.1470428740        8.8300270661       -6.0313861117
 C        -9.5445407870        9.0434581225       -4.0464831756
 C       -12.1645593860        6.7248757004        2.5963000767
 C       -14.0866060642        8.2752897278        1.6727103978
 C        -7.8614006214        4.5098071756        0.5713920580
 C        -7.0048680713        5.8482315405        2.5467420917
 H        -4.2680330050        6.4618954474       -0.4080072079
 H        -5.1743074465        5.2214101538       -0.9419805583
 H        -4.7742902909        5.1881816309        0.8132311331
 H        -8.6650424521        8.6787081876        0.5544914369
 H        -8.1963216565        8.3210529598        2.0958670886
 H       -10.0335549291        9.8761264382        1.8754577040
 H       -10.3780814492        8.4408165697        2.9548296511
 H       -13.6417429803        8.3850467407       -1.0470996977
 H       -13.4465743336        7.1127251646       -2.0752861186
 H       -10.6150354989        7.6323129052       -2.0042211243
 H       -11.3752063364        9.1931618216       -1.5177566790
 H       -10.0862385406        6.1034786695       -6.7814394751
 H       -11.6369734520        5.9052265303       -6.0720475147
 H        -9.0388604315        4.3770723217       -5.3975787815
 H       -10.5197139280        3.8438062528       -6.3122012224
 H       -12.3960974412        0.7036994797       -2.4314387507
 H       -12.2343277466        1.9433107053       -1.1017353540
 H       -10.2247893496        1.0274568341       -0.3795428983
 H       -10.5167890483       -0.6015705744       -1.2448628290
 H        -8.7345187216       -2.8308237612        0.9744316373
 H       -10.0563227304       -3.8967821534        1.4890898245
 H        -8.3509251871       -4.5073597132        3.0575955200
 H        -9.1021241193       -3.0988120073        3.7754711100
 H        -5.7390673755       -5.4830061945        6.7252194328
 H        -5.8760745179       -3.6176295077        7.0307911307
 H        -4.6658921701       -4.3132671216        5.9398162877
 H        -4.5295178164       -3.2877694552        4.4111408624
 H        -4.8317483311       -1.6132726322        5.0588810671
 H        -4.9880404384       -1.8108630132        3.3690918230
 H        -7.1344928890       -0.8428375942        5.3527048275
 H        -6.6667261496       -2.0680511533        6.5182200747
 H        -8.3548146916       -2.0378208803        5.7990073757
 H       -13.0307120978       -3.2187259344        1.9952601492
 H       -13.8902603013       -1.9629094602        1.3586536249
 H       -12.7572872644       -1.7956360903        2.7930419599
 H       -11.1693282955       -3.6729523640        0.0472893915
 H       -10.7700020676       -2.3501170072       -0.9321499171
 H       -12.4651385395       -3.0145649486       -0.9442483206
 H       -12.8912200650        2.2457694783       -4.2793254672
 H       -12.1165724646        0.6725037594       -4.9088739306
 H       -11.9308784847        2.0582110671       -5.7221290556
 H        -9.6297983233        0.5697266829       -4.7841670766
 H        -8.5022689149        1.9229594318       -4.1173299487
 H        -9.1392129406        1.8469627846       -5.6839673553
 H       -11.6853595303        8.0917779784       -6.5106330612
 H       -10.2191125024        9.0718605648       -6.6241036306
 H       -11.6172762893        9.8198738573       -5.9065526612
 H        -9.9504279092        9.9813747228       -3.6138205300
 H        -8.8267729595        9.3062875022       -4.8715717018
 H        -8.8970716330        8.4867655938       -3.3768341833
 H       -11.2008812822        6.1942595328        2.3545860977
 H       -12.8905289931        5.9960973144        2.7254996991
 H       -12.0531587459        7.3282800865        3.5117693462
 H       -14.0863745446        8.3096335282        2.8258564797
 H       -14.9391168224        7.7835837194        1.3383199942
 H       -14.1797461602        9.2185631764        1.1602924213
 H        -7.1814965998        3.8035111553        0.9832074834
 H        -7.9178709116        4.5467059243       -0.4571570646
 H        -8.7969655007        4.0506776694        0.9219745439
 H        -6.0323102055        5.3595359000        2.5279340687
 H        -7.7342345515        5.2884013893        3.0647891872
 H        -6.6550979325        6.7226788734        3.1626551122
 Na      -10.9645032118        4.8486209167       -1.1910758856
