117

 C        -4.9513382660        5.6302409125        0.0494844462
 C        -6.4046201959        6.3228289037        0.0261683936
 O        -6.6015428085        7.3831641144       -0.5640982091
 C        -7.5082732232        5.7770554443        0.8337375395
 C        -8.8013207481        6.7281116434        0.7714275022
 O        -9.9265759376        6.3402321693        0.3480538022
 C        -8.7021032171        8.2243574164        1.1747882145
 C        -9.9751543442        8.8528623462        1.8897377590
 C       -11.3906802458        8.8701251275        1.0850195181
 O       -11.6021938025        9.8678309702        0.3894104772
 C       -12.6009457161        7.7176983996        1.1548381474
 C       -12.6806638177        6.9499972316       -0.0924153661
 O       -12.6688073715        5.7209760258        0.0761920812
 C       -12.7876214674        7.6679308490       -1.4009535912
 C       -11.4650495589        7.9598619856       -2.1181641410
 C       -11.7317336183        7.9853981348       -3.6175004516
 O       -12.9203434443        8.2466110566       -3.9512786902
 C       -10.6190386853        8.1889551818       -4.6046460233
 C        -9.9122879148        6.6208877191       -4.7831072106
 O        -9.0026024539        6.3422892353       -4.0399445930
 C       -10.5023607964        5.6961117950       -5.8980905654
 C       -10.3602806093        4.2073216020       -5.7371428458
 C       -11.0341186924        3.8436225625       -4.4137245519
 O       -11.6711842690        4.7656278262       -3.8386713336
 C       -10.9987831241        2.2401897641       -3.8770818401
 C       -11.0535755046        2.1904866267       -2.3792881916
 O       -10.2173827593        2.7744254156       -1.7647740638
 C       -11.9539428613        1.2834060578       -1.5735331021
 C       -11.1177631799        0.1650805040       -0.8822954222
 C       -11.8765031521       -0.0857206934        0.4860116090
 O       -12.6147607294        0.7152351208        0.9645331677
 C       -11.8603092074       -1.5840688337        1.0847871252
 C       -10.4080734483       -1.8023189188        2.0000744721
 O       -10.2561857703       -1.0180522388        2.8934935923
 C        -9.4779723074       -2.9131912864        1.6708549506
 C        -8.6001075474       -3.2315338945        3.0392688747
 C        -7.2441064296       -2.7834415455        3.1215307018
 O        -6.6144939980       -2.1363437632        2.2888653948
 C        -6.5810834712       -2.8548213357        4.7576404104
 C        -6.5466499247       -4.3915764870        5.2233718213
 O        -7.0829687866       -5.2512555787        4.5957009398
 C        -5.9256128756       -4.9712159880        6.5963619189
 C        -5.0668518854       -2.3848577597        4.6544165526
 C        -7.3867649545       -1.8018574431        5.5091951416
 C       -12.9635657422       -1.6793811151        2.2210367204
 C       -11.8659322734       -2.5794638781       -0.1938625081
 C       -12.1913362372        1.5520930702       -4.5106607111
 C        -9.6402557673        1.6344425204       -4.2180931036
 C       -11.2575560238        8.5814651306       -6.0417115637
 C        -9.4290516499        9.0763016585       -4.2501140623
 C       -12.1544306176        6.7766074043        2.3024098558
 C       -13.8613512066        8.5216738770        1.4118381460
 C        -7.7597052914        4.2441717578        0.7891255385
 C        -6.9560763961        5.9751606286        2.3339659257
 H        -4.6297126828        5.3878725520        1.0772624629
 H        -4.1452998764        6.2242219466       -0.3041540958
 H        -5.0801556187        4.7234296641       -0.4638065688
 H        -8.2724865058        8.8140233890        0.3013421417
 H        -7.8593093100        8.2823786205        1.8015850854
 H        -9.6595063908        9.9632306908        1.8290468399
 H        -9.9447525558        8.3169833018        2.9264076290
 H       -13.3642962869        8.5614642449       -1.3994969977
 H       -13.3965646518        7.0780086562       -2.1168548656
 H       -10.7584503678        7.1328143597       -1.9143474815
 H       -11.0649808889        8.9017863489       -1.7900001750
 H       -10.1046308858        5.9741923392       -6.8673591534
 H       -11.5232062032        5.9056483203       -5.8779468971
 H        -9.3017241497        3.9016453157       -5.9118049898
 H       -11.0302583675        3.8001241268       -6.4813532415
 H       -12.7627823304        0.7988853482       -2.0262641741
 H       -12.3857471694        1.8735684332       -0.7547582474
 H       -10.1406944993        0.5084848263       -0.5375263449
 H       -11.0104865243       -0.7231411668       -1.5579647045
 H        -8.7002164387       -2.4827090171        0.9231551995
 H        -9.8519976889       -3.8900723679        1.4059523879
 H        -8.6166184403       -4.3457868087        3.2699097257
 H        -9.1436069981       -2.7392175323        3.8801864875
 H        -6.1230136316       -4.2110258507        7.4052031240
 H        -4.8889803585       -5.2023721193        6.4318155765
 H        -6.4346567644       -5.8428573362        6.8547537777
 H        -4.7267980418       -2.4024046705        3.5979194637
 H        -4.3406597247       -2.8754678710        5.3612108810
 H        -5.2299282225       -1.3444519312        4.9352798003
 H        -7.4247171318       -0.7870080035        5.1552853806
 H        -7.0444090756       -1.7626216488        6.5707400575
 H        -8.4877045819       -2.1513593033        5.4704397440
 H       -12.8876961068       -2.4345019409        3.0122023105
 H       -13.9640813368       -1.8142876661        1.7582140968
 H       -12.7579747838       -0.7201889538        2.7761926326
 H       -12.1784239751       -3.6606597025       -0.0255445602
 H       -10.8587608002       -2.6432289199       -0.7451854869
 H       -12.4926258038       -1.9313361656       -0.8321455120
 H       -13.1517992567        2.0234371062       -4.2156512340
 H       -12.1895424979        0.5383639707       -4.2858157324
 H       -12.0903529429        1.3842789799       -5.5783789444
 H        -9.4485710539        0.8821461429       -3.5001356005
 H        -8.8654243045        2.3751369503       -4.2459399896
 H        -9.6168860669        1.0479599707       -5.1183190830
 H       -12.2732830725        8.2802428188       -6.0490379262
 H       -10.6282305982        8.2496795792       -6.8692760387
 H       -11.1272707483        9.6522724796       -6.0490550744
 H        -9.8707959206       10.0000488453       -3.8699466191
 H        -8.9310847334        9.3506622473       -5.1440986982
 H        -8.7315570586        8.6578347253       -3.5342974207
 H       -11.2356317526        6.3069866949        2.0279583318
 H       -12.8588396561        5.9860183221        2.4188591742
 H       -12.0248933163        7.3984877075        3.2358326561
 H       -13.7840612474        9.2645600484        2.2944613842
 H       -14.6391672244        7.8517477503        1.8403919585
 H       -14.3561159472        8.9078450606        0.4726987437
 H        -6.9830130644        3.5985614155        0.9421674551
 H        -8.5295047282        4.0329130252        0.0283919823
 H        -8.1814673132        3.9567559001        1.8312390690
 H        -6.4035595268        5.0237263055        2.6255351425
 H        -7.8878540519        5.9318503581        2.8769936137
 H        -6.2880504836        6.8492807392        2.6169435375
 Na      -10.8336417251        4.9648816399       -1.2862584022
