117

 C        -4.9922138078        5.6320481909       -0.0336400017
 C        -6.3654157968        6.3968487009       -0.0555577252
 O        -6.3702283756        7.3760509272       -0.7003932696
 C        -7.6143088689        5.7899114342        1.1202430132
 C        -8.7521334822        6.6726564892        0.7812872470
 O        -9.7703843750        6.2565719484        0.2069668395
 C        -8.7426562345        8.2114133589        1.0366264294
 C        -9.9148405377        8.7343786067        1.8717984425
 C       -11.2517050235        8.8559277247        1.0452429456
 O       -11.3760498838        9.8085337938        0.2808551211
 C       -12.3806537081        7.7981827814        1.2323682750
 C       -12.5686502573        6.9141201376       -0.0952344605
 O       -12.5151290820        5.6884738014       -0.1976483948
 C       -12.7758526639        7.6128206883       -1.4327110271
 C       -11.3334013775        7.7132859973       -2.2490303670
 C       -11.7697874124        8.0199711829       -3.6670484235
 O       -12.8767060897        8.0036499485       -4.0092690672
 C       -10.4794163186        8.0930563369       -4.7547144090
 C        -9.8800237753        6.6995712140       -4.8829535233
 O        -8.9722075981        6.3600087264       -4.1679170309
 C       -10.5256789651        5.7101785300       -5.9986711776
 C       -10.3926949307        4.2394428549       -5.7086984977
 C       -11.1560443978        3.8333313376       -4.4945931150
 O       -11.6626820332        4.6111662698       -3.7285106519
 C       -11.2049726229        2.3146527207       -3.8796478898
 C       -11.0812173839        2.3315884283       -2.2661136706
 O       -10.2306188539        3.0122328086       -1.7208894670
 C       -11.9529145328        1.2665318135       -1.5704938694
 C       -11.2237502170        0.1662118056       -0.7515516834
 C       -11.9484248288       -0.1607708871        0.5090020032
 O       -12.5544497234        0.7275022317        1.0467966865
 C       -11.8486468866       -1.5131050139        1.1664739830
 C       -10.4173933578       -1.6826626192        2.0087250584
 O       -10.3611517745       -0.9514254991        2.9988064250
 C        -9.3498160809       -2.6949577964        1.6981747463
 C        -8.7446702973       -3.2955005689        3.0742629536
 C        -7.3006593051       -2.6438583219        3.3164132517
 O        -6.7376588667       -2.0586693257        2.4301104354
 C        -6.6489538423       -2.9239857183        4.6564375222
 C        -6.6793315349       -4.4509038503        5.1995765007
 O        -7.0558587485       -5.3804924186        4.4724584152
 C        -6.0756476937       -4.7447946772        6.5625962550
 C        -5.1139465270       -2.4184125624        4.6906201510
 C        -7.3612452875       -1.9574336694        5.6194655755
 C       -12.8929394043       -1.6620289103        2.2464014003
 C       -11.9386554829       -2.6544884897        0.1500231480
 C       -12.2242663863        1.4532230941       -4.5286843681
 C        -9.7732289716        1.6359594688       -4.2110480481
 C       -11.0779906353        8.5642228739       -6.1503504637
 C        -9.4422894171        9.0710539206       -4.2553553076
 C       -12.2429982164        6.8899286523        2.4221155698
 C       -13.8459002378        8.6779042868        1.5438669724
 C        -8.0890622838        4.3433850155        0.7711505582
 C        -7.0280364331        6.0110091251        2.5068121648
 H        -4.8894707256        4.9113779200        0.6521074894
 H        -4.2028206962        6.3253957364        0.1698870833
 H        -4.9289413161        5.1635202558       -1.0017213910
 H        -8.7637286722        8.6931867559        0.0965064117
 H        -7.7015725238        8.5375341091        1.3609154268
 H        -9.5747142777        9.7133104571        2.1708230988
 H       -10.0291474630        7.9403166411        2.6984563411
 H       -13.1587598899        8.5713158447       -1.4254652454
 H       -13.4927615412        7.1196825532       -2.0125899051
 H       -10.7446162211        6.7471578105       -2.2298891090
 H       -10.7414145693        8.5502662339       -1.8418237056
 H        -9.9154264085        5.9434395114       -6.9437804785
 H       -11.5333347863        5.9220652091       -6.1035871683
 H        -9.2684145956        4.0584767933       -5.5016517508
 H       -10.7625359359        3.6104820721       -6.5592202176
 H       -12.6767596510        0.7733639639       -2.1972686568
 H       -12.5821307113        1.7757555752       -0.8229926883
 H       -10.1639292732        0.4569849869       -0.3374400643
 H       -11.1457284129       -0.7106411366       -1.3250095889
 H        -8.4456567937       -2.1031491798        1.3657934718
 H        -9.5109564795       -3.5326735675        1.1421089302
 H        -8.7454598592       -4.4208311375        2.9729516527
 H        -9.4048677895       -3.1141084950        3.8557783956
 H        -5.5989242560       -3.8229395701        6.9176118307
 H        -5.3468373893       -5.4851561601        6.2099085578
 H        -6.6489207567       -5.1760826595        7.3561259194
 H        -4.7252227698       -2.2709968837        3.5964999804
 H        -4.4838522931       -3.0831313192        5.2673125899
 H        -5.1922754561       -1.4282655555        5.1449079988
 H        -7.7085144783       -0.9650332609        5.2668085635
 H        -6.6847589029       -1.7327281430        6.4842958203
 H        -8.3486921612       -2.4707676533        5.9618042040
 H       -12.9409478555       -2.6101605878        2.8730581485
 H       -13.8319365535       -1.6534181885        1.6439373800
 H       -12.7629998877       -0.8392234917        2.9246148630
 H       -12.0731675512       -3.6198435763        0.6666047158
 H       -11.0410691090       -2.7594162334       -0.4692370861
 H       -12.7658816198       -2.2684321702       -0.5077610646
 H       -13.2304937819        1.8539481110       -4.4057297307
 H       -12.1795212260        0.3967618496       -4.3269503485
 H       -11.9834884453        1.3959054814       -5.5270669559
 H        -9.7806585126        0.7589430487       -3.5973538512
 H        -8.9466349530        2.2484526544       -3.8303008448
 H        -9.5795529211        1.3380855196       -5.1404718895
 H       -12.0976313708        8.3548219946       -6.0561765688
 H       -10.5549340071        8.1667883037       -7.0260850381
 H       -10.9719877843        9.6343464953       -6.1816145791
 H        -9.9239213619       10.0331993284       -4.2071315240
 H        -8.4615530242        9.1953915747       -4.8849598479
 H        -9.2151042965        8.8018595453       -3.2711158791
 H       -11.3883427821        6.1674235521        2.2916339595
 H       -13.0989104002        6.3128515140        2.2478015838
 H       -12.2377589155        7.3507764153        3.4037031989
 H       -13.7755273476        9.5275599528        2.3542902283
 H       -14.6895877940        8.0690874503        1.9753140835
 H       -14.1597396995        9.0114216551        0.5219974035
 H        -7.1837772332        3.6589430465        0.8058780766
 H        -8.6331707829        4.4265583105       -0.0571247582
 H        -8.5502815007        3.7785863903        1.5408320103
 H        -6.2239638149        5.2680545980        2.7383926734
 H        -7.8478248531        5.9138007167        3.2684507645
 H        -6.5393374055        7.0767321823        2.5620897357
 Na      -10.8531729667        4.9586088282       -1.3230362938
