117

 C        -5.1544927413        5.3433889727       -0.0009670450
 C        -6.3001386966        6.2557321617        0.0637981501
 O        -6.5386799868        7.2478562382       -0.6495359373
 C        -7.4917009344        5.9564953922        1.0098901365
 C        -8.6151121575        6.9041497997        0.4932033519
 O        -9.5957571543        6.4518724008       -0.1201509755
 C        -8.5960913032        8.3773580919        0.9430284736
 C        -9.8071472560        8.5107498054        1.9366912944
 C       -11.0556733505        8.7007116005        1.1043349132
 O       -11.0740514092        9.3824922066        0.0974457685
 C       -12.3581159356        7.9763337409        1.2648049111
 C       -12.4673233657        7.0225542401       -0.0617025091
 O       -12.3557541708        5.8074276705        0.0461167856
 C       -12.5140466925        7.7343541611       -1.4248487350
 C       -11.4456846288        7.6596697370       -2.5078567100
 C       -11.6857060118        7.8171183288       -4.0275772784
 O       -12.8401414455        7.6660383512       -4.5471709082
 C       -10.3867318861        8.0167785233       -4.9471459857
 C        -9.8717596520        6.6149324214       -5.1417350743
 O        -8.9788190855        6.2377292024       -4.3911541088
 C       -10.6448133146        5.6004617568       -6.0535180702
 C       -10.3835886761        4.2223977338       -5.4967432766
 C       -11.0603523608        3.8363390962       -4.1959538613
 O       -11.7621343221        4.6017254843       -3.5156260941
 C       -11.0659524658        2.3268978294       -3.9318278518
 C       -11.2081908983        2.0893691221       -2.3467257479
 O       -10.3820290419        2.7748315381       -1.7464676150
 C       -12.1464415606        1.2676878781       -1.3718436706
 C       -11.2924131348        0.2117489946       -0.5883316767
 C       -11.9956907230       -0.2286796715        0.6836428530
 O       -12.4821663331        0.7066304099        1.2453723384
 C       -11.8770038769       -1.6127230066        1.4731701476
 C       -10.5884723744       -1.4871371503        2.3175557072
 O       -10.3858258928       -0.6931767211        3.1926774432
 C        -9.3931083672       -2.3309974676        1.7898597104
 C        -8.7470915357       -3.1961549329        2.9137953113
 C        -7.4835164851       -2.5337580770        3.3896501356
 O        -6.8678414749       -1.7856518259        2.6323644031
 C        -6.7616687834       -2.9328414721        4.6742587982
 C        -6.8563032934       -4.4167933543        5.1651461512
 O        -7.0418395882       -5.2580958911        4.3735725957
 C        -6.2971087293       -4.8238285667        6.6268265912
 C        -5.2219608303       -2.4851465584        4.5150437085
 C        -7.4928346660       -2.3004869451        5.9259628219
 C       -13.0563608675       -1.6041150634        2.5064176729
 C       -11.9444489387       -2.8218680333        0.5449884112
 C       -12.2145692918        1.6313557889       -4.5563876777
 C        -9.8085339122        1.6000753826       -4.4033248922
 C       -10.8681049589        8.7515660418       -6.2928912884
 C        -9.2886199341        9.1282343582       -4.3283891898
 C       -12.3344760773        6.9491149656        2.4321058037
 C       -13.5446266634        8.9439466699        1.3780202643
 C        -7.7391563465        4.3668810660        0.8149826463
 C        -7.2047085849        6.1270640705        2.4832312631
 H        -5.3733252718        4.3373492845       -0.5531892228
 H        -4.8330144601        5.0779784392        1.0448444155
 H        -4.3425911360        5.8256306344       -0.5833025455
 H        -8.8201223481        9.1415149285        0.1211007985
 H        -7.6118389822        8.5737501287        1.2152033317
 H        -9.5613695084        9.4358002909        2.5181832567
 H        -9.8692141823        7.7631292370        2.6809811039
 H       -12.5517224780        8.8541841970       -1.2152575129
 H       -13.5640222874        7.5791310008       -1.9279683190
 H       -11.0446609558        6.6467263742       -2.3374532395
 H       -10.7316377274        8.4596363497       -2.3603292955
 H       -10.2046335455        5.7718133482       -7.0320167639
 H       -11.7835574125        5.6449489828       -6.0060442040
 H        -9.3527303456        4.0414243284       -5.3594956821
 H       -10.8037997201        3.5041360344       -6.2092892639
 H       -12.9415220742        0.7625214159       -1.9700744700
 H       -12.6575391894        1.8949843391       -0.5943636973
 H       -10.4099351404        0.5818561038       -0.2076397979
 H       -11.0346842921       -0.6312606147       -1.3132585606
 H        -8.5654103841       -1.7249855005        1.6333948382
 H        -9.5100653379       -3.0765958420        0.9708560774
 H        -8.5727626404       -4.2120361162        2.6784822558
 H        -9.5157320803       -3.3079694736        3.7492509910
 H        -5.2562707382       -4.4509738077        6.7568152001
 H        -6.5154078740       -5.8855000317        6.7092486160
 H        -6.9039993346       -4.3191786081        7.3985242270
 H        -4.9943807854       -2.5522146302        3.4981136615
 H        -4.7526383592       -3.3464998268        5.0090116177
 H        -4.8875732241       -1.5021753023        4.8445079197
 H        -7.8734815260       -1.3290124978        5.6856204277
 H        -6.9462450335       -2.1342933706        6.8029402773
 H        -8.3498998774       -2.9103281508        6.0762222640
 H       -13.0926634072       -2.6095318176        2.8047530387
 H       -14.0198729863       -1.3346740010        2.0398901925
 H       -12.8526287181       -0.9785316481        3.4405007555
 H       -11.3598805634       -3.6155882734        1.0106766453
 H       -11.4742605851       -2.6429139098       -0.4121761154
 H       -12.9356269041       -3.1445967598        0.3898129070
 H       -13.0334651169        2.0944003409       -3.9702390861
 H       -12.2526589599        0.5651284501       -4.3536910153
 H       -12.4673793195        1.7502344667       -5.6744359707
 H        -9.7748603062        0.4690455524       -4.5390477928
 H        -8.9317276530        1.7190602369       -3.6876001172
 H        -9.5120449858        2.1180491354       -5.3788303036
 H       -11.6973236501        8.0571965732       -6.6146335629
 H        -9.9945886825        8.6994554186       -6.9469848398
 H       -11.3664606081        9.7445163832       -6.1903417463
 H        -9.4917474244       10.2309225114       -4.3867148009
 H        -8.3881684322        8.9341617601       -4.7879700918
 H        -9.1810041501        8.8300160363       -3.2450851361
 H       -11.5341471683        6.3489829479        2.0591239697
 H       -13.2462536980        6.3046103213        2.4816629743
 H       -12.1442560201        7.3412785011        3.4558581994
 H       -13.7619070841        9.4218709179        2.3196225350
 H       -14.4041133737        8.3601120433        1.2935746545
 H       -13.4562510265        9.7166339946        0.6406839340
 H        -7.1947718852        3.9416535768        1.5830601785
 H        -7.4782755350        4.0521248562       -0.2455563125
 H        -8.8422671018        3.9470656279        0.9433237928
 H        -6.1787684972        5.7667948754        2.6054252104
 H        -7.8228443142        5.6253883584        3.1765088946
 H        -7.2731874575        7.1662783438        2.6507591856
 Na      -10.9803232920        5.0146984973       -1.4590882086
