117

 C        -7.4007663357       -5.9605114269        4.6253593664
 C        -6.9968417810       -5.5519111563        3.2242031792
 O        -6.5121967479       -6.3245676183        2.4381268299
 C        -7.5424519731       -4.1545019679        2.6989079388
 C        -9.0897110314       -4.2022189233        2.3231926379
 O        -9.7365382229       -5.2041956534        2.2572724960
 C        -9.7534692879       -2.8839170350        1.7772540530
 C       -11.1522284747       -3.1655770515        1.3167671236
 C       -12.0470995596       -1.8212120102        1.1789645630
 O       -12.1955104750       -1.2195092286        0.1279488384
 C       -12.7823942058       -1.1419645792        2.4614613917
 C       -11.6899117262       -0.1437942875        2.8982697105
 O       -10.8550161490       -0.3159505062        3.7714198634
 C       -11.5546300447        1.1305092749        1.9275409978
 C       -10.0776943795        1.4009070515        1.4823305186
 C        -9.9233815432        2.4737356324        0.3667065030
 O        -9.7684774935        3.6240064271        0.7523549821
 C        -9.8627546028        2.1323661402       -1.2144068397
 C       -11.3299082143        2.6026255557       -1.7266935492
 O       -12.2381401621        2.5459240140       -0.9116559503
 C       -11.8050925929        2.8984624835       -3.2330991307
 C       -12.7237856518        4.1437309438       -3.2395057816
 C       -11.9420717734        5.2188498533       -2.5594390857
 O       -10.8589176490        4.9569956886       -2.0814891190
 C       -12.5764337024        6.6675643535       -2.4893688342
 C       -11.2817867634        7.7124939543       -2.6321405644
 O       -10.3036281657        7.7085494394       -1.8906204061
 C       -11.4449653728        8.7541121750       -3.6857745813
 C       -10.4223927406        9.8846057133       -3.6525970114
 C       -10.4301408313       10.6269965543       -2.3012763369
 O       -11.3155630480       10.4141830678       -1.4765520060
 C        -9.2095328109       11.4318546246       -2.0375579036
 C        -8.2972907195       10.5048022604       -1.0522951645
 O        -7.2157487195       10.0905013163       -1.3133780714
 C        -9.0458642535       10.0637297266        0.1699075480
 C        -8.0414389706        9.4603914898        1.2226923994
 C        -7.9626048630        7.9575949905        0.8595269523
 O        -8.9791063258        7.3096137613        0.8800623465
 C        -6.6512396167        7.2496406824        0.6185401064
 C        -6.4503250059        6.7540153581       -0.8158316510
 O        -7.2555575876        6.0218280325       -1.3079661243
 C        -5.1345733646        6.9796286665       -1.5329793206
 C        -5.4344076461        8.0210555253        1.2061552261
 C        -6.5532617992        5.9568283804        1.4121705461
 C        -8.3807558236       11.8043748118       -3.3098758086
 C        -9.5547732974       12.7372484248       -1.2435472991
 C       -13.6960642612        6.8604176912       -3.4813509385
 C       -13.1704377744        6.7217280000       -1.0234017620
 C        -8.7056766838        2.8626711307       -1.8359075575
 C        -9.7461968895        0.6503272670       -1.5591361564
 C       -14.1918077521       -0.6306578098        1.9847197372
 C       -12.9437946286       -2.0831473473        3.6525223600
 C        -7.3018227584       -3.1098471684        3.7923242653
 C        -6.7412359914       -3.6321887573        1.4503872739
 H        -6.9516852912       -5.3242305060        5.3856606722
 H        -7.1171578300       -7.0127301680        4.7014233820
 H        -8.4586436445       -6.0020223487        4.6288470949
 H        -9.0267870880       -2.4282716774        0.9951306748
 H        -9.6846599940       -2.1014985054        2.4597240006
 H       -11.5690244246       -3.9140801218        1.9936928986
 H       -11.1373833602       -3.6137148749        0.3728189401
 H       -11.9134769382        2.1037071799        2.3756470688
 H       -12.2737882704        0.9050625586        1.1320902859
 H        -9.5353531154        0.5243543860        1.1867529473
 H        -9.5986195024        1.7948118572        2.3706835647
 H       -12.2430995863        2.0369274786       -3.7204485562
 H       -10.9804725171        3.0930746578       -3.8916490594
 H       -13.6104979204        3.9976238838       -2.6272866143
 H       -13.1254183658        4.3784409167       -4.1977459157
 H       -12.5698097740        9.0699407181       -3.7304831866
 H       -11.2517569448        8.2292206907       -4.6394228530
 H       -10.5818949555       10.7208890504       -4.3996576695
 H        -9.5381252907        9.4387192958       -3.9317533076
 H        -9.7818144555        9.3440956470       -0.2082350378
 H        -9.6102089272       10.8472281284        0.6384549090
 H        -8.4564397111        9.4795043234        2.2000204724
 H        -7.0280061402        9.9164939638        1.3118065672
 H        -5.0000645932        8.0514384368       -1.7351421778
 H        -5.0749294962        6.4972904191       -2.5613074973
 H        -4.4275489135        6.7009055011       -0.8177794058
 H        -5.5880557398        8.3713505702        2.2002240608
 H        -5.1704105851        8.9070964371        0.6420502558
 H        -4.5447016967        7.3585946501        1.1726133586
 H        -6.3808201297        6.1115704439        2.5040457436
 H        -5.8599974076        5.4508767724        0.8660353531
 H        -7.5201952407        5.3477138834        1.3061443724
 H        -7.6343271020       12.5975834557       -3.1207772184
 H        -9.1899696639       12.1325065898       -4.0173345810
 H        -7.8316139984       10.9921275575       -3.7606700041
 H        -8.9733576873       12.9624325298       -0.3534681546
 H       -10.5052708396       12.4911404972       -0.9260022047
 H        -9.7386678399       13.6036725563       -1.9226223538
 H       -14.2149030444        5.9307758798       -3.5064434336
 H       -13.4083515391        7.0725880747       -4.4872696719
 H       -14.4178893296        7.7310034724       -3.2627296214
 H       -13.9162020851        5.9126667595       -0.8874060137
 H       -13.7182038891        7.7652720169       -0.9345878432
 H       -12.3963746616        6.6160561334       -0.2195636006
 H        -9.0779453851        3.0415304993       -2.8826762758
 H        -7.8519561755        2.1784295371       -2.0130952495
 H        -8.3124951167        3.8047462586       -1.3231876364
 H       -10.4580233568        0.0714236439       -0.9695873562
 H        -8.7410939099        0.2440472118       -1.3200415177
 H        -9.9545311157        0.4490060980       -2.6437749469
 H       -14.7339526312       -1.5125057089        1.5804910528
 H       -14.0112408400       -0.1375979856        1.0338476865
 H       -14.7408653880       -0.1662169369        2.7688754972
 H       -13.5908399779       -2.9045897075        3.3905469949
 H       -13.5885742006       -1.6530807224        4.3670281411
 H       -12.0048679146       -2.3674581450        4.1409525089
 H        -8.0073257046       -3.2119006264        4.5936214604
 H        -7.4442802776       -2.1243499002        3.5255706465
 H        -6.3259168484       -3.2766530854        4.2390742463
 H        -5.6839337920       -3.5056224910        1.5532151116
 H        -7.0512515962       -2.6230491799        1.2200955236
 H        -7.0247070171       -4.2521043951        0.5758276922
 Na       -9.3818354291        5.7317988214       -0.5695601524
