117

 C        -4.7845657505        4.8706402675        0.2900317836
 C        -5.8107201356        5.8994773725       -0.0246360898
 O        -5.6390554271        6.8805655132       -0.7484273649
 C        -7.2285009578        5.5891412292        0.7228439950
 C        -8.3270128844        6.6224182107        0.3616502152
 O        -9.1566593099        6.6053691387       -0.4792220014
 C        -8.3464868471        8.2226821865        0.9373167566
 C        -9.6581447177        8.6563463243        1.5255329735
 C       -10.7680771379        9.1305132870        0.5399731730
 O       -10.4829895394        9.9605245248       -0.2231052608
 C       -12.3480539461        8.4632366347        0.7232154709
 C       -12.3967610707        7.3051784209       -0.5406321921
 O       -11.9105300531        6.1779102650       -0.3514751112
 C       -12.9521048339        7.6557890304       -1.8699113760
 C       -11.6869153574        8.3187465375       -2.6755064079
 C       -11.6972160569        7.8162266784       -4.1505001870
 O       -12.6877391462        7.3115240439       -4.6167069452
 C       -10.3876665130        7.8243320844       -5.0449505179
 C       -10.0288030808        6.2983531404       -5.0970463040
 O        -8.8218326456        6.0505715378       -4.9122484906
 C       -11.0157938768        5.3024681178       -5.7397767381
 C       -10.7374022744        3.8443696667       -5.4372299184
 C       -10.9737308484        3.5942949673       -3.9885691871
 O       -10.6713753914        4.4053695030       -3.1328183092
 C       -11.4340321192        1.9961579703       -3.7342903320
 C       -11.3020196427        1.7898929045       -2.1741561517
 O       -10.6082979118        2.4621372075       -1.4213546144
 C       -11.8644372423        0.4376475076       -1.5807846340
 C       -11.2274731761       -0.0605180795       -0.2245086224
 C       -12.2673345833       -0.0924156164        0.9038782793
 O       -13.1384587326        0.7565369440        0.9291142518
 C       -12.1299671317       -1.1668939947        2.0865759477
 C       -10.6731585214       -1.1024061334        2.7443701687
 O       -10.6538503340       -0.7491328726        3.8757241725
 C        -9.4662280164       -1.6979458983        1.9442179730
 C        -8.6894045520       -2.6972687113        2.9698711242
 C        -7.4281034558       -2.1962911956        3.6291224810
 O        -6.7582104689       -1.2272516898        3.2936426115
 C        -6.9887454907       -2.9051728218        5.0599921959
 C        -7.0806639008       -4.4814689766        4.7637031518
 O        -7.2333744229       -4.9461672225        3.6578354442
 C        -7.2590312586       -5.3556347567        6.0598779333
 C        -5.4955664165       -2.3049885203        5.2032062869
 C        -7.8005234444       -2.3412567012        6.2321144225
 C       -13.3084575034       -0.8172821516        3.0343224905
 C       -12.3751942349       -2.5700653672        1.4686858706
 C       -12.8572624131        1.6272754676       -4.2323928249
 C       -10.3658619450        1.1195751934       -4.3253244958
 C       -10.8386253756        8.4048989141       -6.4213913515
 C        -9.1493515962        8.5390013065       -4.4509156483
 C       -12.5910728023        7.8678164512        2.1093656426
 C       -13.3601023227        9.6692411155        0.5623507315
 C        -7.6875715130        4.1843438887        0.2558469617
 C        -7.2646777263        5.6626363924        2.2634296657
 H        -4.8805929771        4.4380615202        1.3801460101
 H        -3.7558836644        5.3012297695        0.1869881279
 H        -4.8521465634        4.0705326454       -0.4375165020
 H        -8.0740901141        8.7299030094        0.0508313388
 H        -7.5011567743        8.3195909866        1.6875922460
 H        -9.3826026582        9.5032024138        2.3269411516
 H        -9.9636576639        7.9148186342        2.3195988822
 H       -13.6957436561        8.5087947937       -1.8300569358
 H       -13.2525097999        6.8152490411       -2.4373672169
 H       -10.7747072783        7.9578159861       -2.2350070305
 H       -11.9184322076        9.4610882433       -2.7167741609
 H       -10.8446634377        5.5074880589       -6.7194709913
 H       -12.0257345854        5.6455305135       -5.4212761579
 H        -9.7098242321        3.5878429143       -5.4761190330
 H       -11.2443185684        3.1696273873       -6.0834927858
 H       -11.7371694717       -0.2803133262       -2.4270558605
 H       -12.8929161804        0.7366537865       -1.3967377562
 H       -10.5660920960        0.7644224140        0.1743549861
 H       -10.5073992882       -0.8034639542       -0.3972830330
 H        -8.7331062980       -0.8420989912        1.8495209869
 H        -9.6005551496       -2.1697816051        0.9454332621
 H        -8.5728209400       -3.7380925565        2.4944306866
 H        -9.3714977603       -2.9647435073        3.7853394861
 H        -7.1285858746       -6.3392679929        5.7455784102
 H        -8.3003272988       -5.1776945309        6.4199342094
 H        -6.5502080577       -4.9810616197        6.8416232975
 H        -5.0206242203       -2.3963229682        6.1426958529
 H        -5.4570913451       -1.2959501113        4.7918954960
 H        -4.9070545323       -3.0105176499        4.5893517993
 H        -7.7138522304       -1.2545503629        6.0346422885
 H        -7.2211823969       -2.5682891706        7.0937766329
 H        -8.7007586017       -2.6229810351        6.5398956081
 H       -13.4709972974       -1.7021138842        3.6226879380
 H       -14.1240403745       -0.4639158519        2.4458961384
 H       -13.1936404201        0.1336831911        3.5355559150
 H       -12.1935470188       -3.4403296374        2.1136596926
 H       -11.9304855740       -2.7926874527        0.4717175801
 H       -13.4315827555       -2.7536870351        1.2537847863
 H       -13.5662995956        1.8320383242       -3.4395288165
 H       -12.9417034477        0.5021100676       -4.4566185865
 H       -13.1925773843        2.2800215237       -5.0705808163
 H       -10.6879805601        0.1201546461       -4.1086882569
 H        -9.4809210180        1.1765796894       -3.7772164706
 H       -10.1802911841        1.2032149976       -5.4685719076
 H       -11.9629668469        8.2125342066       -6.6729164049
 H       -10.2470125098        7.8749121992       -7.1655722245
 H       -10.5378967185        9.4549339762       -6.4603326321
 H        -9.1596059750        9.6148892625       -4.6012420897
 H        -8.2832111695        8.0979277326       -4.8621034498
 H        -9.1346501007        8.3603909117       -3.3484697082
 H       -11.9165261632        6.9931085573        2.1344991725
 H       -13.6393255695        7.4094311546        2.1309622614
 H       -12.4306685499        8.5624476246        2.9290834383
 H       -13.4651039073       10.3008464272        1.3388980602
 H       -14.3716764733        9.2283266406        0.3266642926
 H       -13.0674132333       10.3959016474       -0.2238127967
 H        -6.9535017264        3.6095943597        0.6110434344
 H        -7.4537895920        3.8359782670       -0.8505322318
 H        -8.6680806086        3.9590620319        0.6256825474
 H        -7.0407747143        4.6807338544        2.6079451442
 H        -8.2993367286        6.0084283804        2.5600276676
 H        -6.5696012068        6.3790427032        2.5480202030
 Na      -10.2857582307        4.7758853402       -0.9072718778
