117

 C        -4.5929193156        5.0099869814        0.6300102983
 C        -5.7280423693        5.8530480304        0.1206684250
 O        -5.5172419496        6.8992892263       -0.4483368437
 C        -7.2330346525        5.5818056122        0.6132094007
 C        -8.0873001190        6.6015893832        0.0506103572
 O        -8.9165792404        6.4049403482       -0.8017956944
 C        -8.0955134428        8.0352766936        0.6749923879
 C        -9.4828538599        8.2415923193        1.2933472933
 C       -10.4574934227        8.9948602598        0.3513442875
 O       -10.0333875800        9.7918318233       -0.4593508135
 C       -11.9991294025        8.8237445015        0.4104719142
 C       -12.1123660461        7.5143374783       -0.4546016202
 O       -11.7259604816        6.4968195965        0.1486387300
 C       -12.5537364058        7.5195523646       -1.8672451876
 C       -11.4757170917        8.0480746585       -2.8398969210
 C       -11.7395568616        7.7678866356       -4.2807907310
 O       -12.8797786827        7.7565809420       -4.7444849719
 C       -10.4897590288        7.5214070255       -5.3035779320
 C        -9.9714399186        6.0669063466       -5.4194989795
 O        -8.9360314512        5.6800220288       -4.8920291921
 C       -10.9864469912        4.9722965507       -5.9804330875
 C       -10.6970990524        3.5658658566       -5.5112710527
 C       -10.7659481488        3.3874308664       -4.0142140793
 O       -10.6766877249        4.3562112303       -3.2427974024
 C       -11.2449970827        1.9658015512       -3.4771322662
 C       -11.2169513906        1.5851646291       -2.0061219912
 O       -10.7161956984        2.3548845860       -1.1429475514
 C       -11.6864313126        0.1452815701       -1.5158606310
 C       -11.2311865407       -0.2809725820       -0.1144491857
 C       -12.3397484536       -0.1966648829        0.9477876054
 O       -13.3434995846        0.3711548381        0.6286466712
 C       -12.3179535217       -0.9420557875        2.4575323129
 C       -10.8543161816       -0.8593851711        3.1733764198
 O       -10.6853886456       -0.3956705889        4.2456880377
 C        -9.6703711208       -1.1603186092        2.3354666928
 C        -8.8899789601       -2.3256270029        3.0204252023
 C        -7.6183436028       -1.9332551701        3.7975258080
 O        -6.9196248108       -0.9341400878        3.5985581599
 C        -7.3390390273       -2.8883566238        5.0053067593
 C        -7.2908113289       -4.4003227742        4.6208852628
 O        -6.9197101610       -4.7456234784        3.5537640298
 C        -7.6303390541       -5.4666921494        5.7247502704
 C        -5.7778289532       -2.6363740326        5.4322464327
 C        -8.2040997415       -2.3299612411        6.1394149755
 C       -13.4436773669       -0.2919234467        3.2921448317
 C       -12.7137550224       -2.3630900619        2.1904087235
 C       -12.8637630180        2.0668012179       -3.6362773495
 C       -10.7894584443        0.7314064841       -4.2674953300
 C       -10.8447746020        7.9843393233       -6.7199017986
 C        -9.1567785430        8.2463801503       -4.7268217878
 C       -12.5283086503        8.5130340725        1.9348428009
 C       -12.7139435868       10.0593931431        0.0071697376
 C        -7.5944914532        4.2249484834        0.0943172532
 C        -7.1314735172        5.5365203336        2.2277821511
 H        -3.6597910039        4.9655182373       -0.0232446404
 H        -4.8873497490        3.9099117792        0.7634906140
 H        -4.3466153977        5.3746629186        1.6419601695
 H        -7.7981772878        8.8387438067        0.0316768839
 H        -7.4268519973        7.9679118526        1.5643529375
 H        -9.2557140558        8.8531344475        2.3228614852
 H        -9.8595135735        7.2087186911        1.5540868901
 H       -13.4562912357        8.1701799718       -1.6903914779
 H       -12.7371595474        6.4532002460       -2.1986355043
 H       -10.6811015227        7.3658977866       -2.5882021420
 H       -11.1933204343        9.1654793656       -2.6884222121
 H       -11.0101540136        5.0627395270       -6.9704725273
 H       -11.9378786628        5.4307247330       -5.6325489924
 H        -9.7659174263        3.2666903780       -5.9113557341
 H       -11.3963034433        2.8297409172       -5.9172998198
 H       -11.3744444979       -0.5351124509       -2.3713680040
 H       -12.8077298613        0.1906490993       -1.3612959071
 H       -10.3843788511        0.2754015678        0.2119056402
 H       -10.8739929092       -1.2834111192       -0.3195363397
 H        -9.0420524792       -0.3106398211        2.4381929543
 H        -9.8737684684       -1.4846392011        1.2263495151
 H        -8.4145543141       -2.9945011354        2.2504360547
 H        -9.5655010954       -2.9370327601        3.6354926692
 H        -8.4563984256       -6.0130173065        5.3215244694
 H        -7.9235770362       -5.0242692965        6.6880256793
 H        -6.6787661206       -6.0273881818        5.8967516806
 H        -5.4679939180       -3.3725591141        6.0763706661
 H        -5.4552095989       -1.6011381024        5.6581154265
 H        -5.1947759112       -2.7870665052        4.5452064777
 H        -7.9263851850       -1.2727787416        6.2016243897
 H        -8.1383160217       -2.9097620223        7.0554602607
 H        -9.2073118221       -2.2296203816        5.8663505721
 H       -13.4535455588       -0.6049322008        4.2993579257
 H       -14.4032914205       -0.4785446398        2.8287032644
 H       -13.2899780370        0.8152198805        3.1890102618
 H       -12.7635390331       -3.0608264319        2.9449077622
 H       -11.8956052207       -2.7790260081        1.6185322702
 H       -13.5516614638       -2.5318498701        1.6260981635
 H       -13.1326776086        3.0850052361       -3.4965582284
 H       -13.4731282991        1.5480567612       -2.9038573578
 H       -13.1136088378        1.7946875308       -4.6789848779
 H       -11.3274718549       -0.2319122800       -3.9912836951
 H        -9.6428836379        0.6278747768       -4.3381732970
 H       -11.1094388484        0.7604858732       -5.2815886260
 H       -11.5382382022        7.1983772617       -7.1787040226
 H        -9.9866219125        8.2088914052       -7.3568110878
 H       -11.4291594623        8.9218351321       -6.6346930702
 H        -9.6669103463        9.0062872128       -4.1046126387
 H        -8.4952404526        8.6570110769       -5.4060191015
 H        -8.6386500107        7.5881765992       -3.9383833501
 H       -12.3618540770        7.5402006491        2.3038035411
 H       -13.6407471737        8.6678719699        1.8417394923
 H       -12.0063568914        9.1985320483        2.5380688913
 H       -12.3583182974       10.8637058549        0.6349053904
 H       -13.7487050246       10.0025353516        0.1268506018
 H       -12.6370090361       10.3183670045       -1.0157344832
 H        -6.7673796139        3.5126577731       -0.0389629152
 H        -7.9791883362        4.3069831847       -0.8971783527
 H        -8.3618133199        3.7320559475        0.8523749054
 H        -6.2204717884        5.9000192920        2.6410995361
 H        -7.3618918216        4.4852155086        2.3963015365
 H        -7.8361646438        6.1229222288        2.6717715773
 Na      -10.8005197663        4.8183558689       -1.1638617122
