117

 C        -4.4292796818        5.0439030195        0.6435262221
 C        -5.6474962921        5.9684668989        0.2701537996
 O        -5.4687608663        6.9222436762       -0.4063064470
 C        -7.1154001361        5.4648808601        0.5919904570
 C        -8.2162601326        6.4996585752       -0.0347715401
 O        -9.0647800058        6.3165231365       -0.9163115030
 C        -8.1428377242        7.9439610136        0.6844416453
 C        -9.4425576709        8.2664304224        1.4054370606
 C       -10.3580858980        9.0476225770        0.3830309108
 O        -9.8349052807        9.7324453958       -0.5097844159
 C       -11.9212384233        8.9373749550        0.4014626810
 C       -12.1862965516        7.5310080811       -0.4051347697
 O       -11.7107156667        6.4575699724        0.0950499836
 C       -12.6297383390        7.4255037214       -1.9032065397
 C       -11.3174685781        7.7756867655       -2.7524949288
 C       -11.6335704957        7.6785493186       -4.2786031467
 O       -12.7570395101        7.8978033935       -4.7232387313
 C       -10.4614275940        7.5733983691       -5.3327811516
 C        -9.9747279750        5.9374566223       -5.3153211710
 O        -8.9273154196        5.5699189869       -4.9885376049
 C       -10.9465532535        4.9109135162       -5.9603711935
 C       -10.5385197303        3.5451066038       -5.4560147826
 C       -10.9214469799        3.2883737650       -3.9350802701
 O       -10.7329285225        4.2242110300       -3.2401200389
 C       -11.4692560752        1.9125883109       -3.4727756665
 C       -11.1801764298        1.6393222804       -1.8546530458
 O       -10.6726138996        2.4898429184       -1.1352959548
 C       -11.6306947418        0.2202406424       -1.4604267025
 C       -11.2621898229       -0.2534028223       -0.0169166159
 C       -12.4479944505       -0.2904790003        0.9267075770
 O       -13.4381771462        0.3791091306        0.6317483427
 C       -12.3497450875       -0.8688034708        2.3514008521
 C       -10.8165429134       -0.6564120083        3.0850335838
 O       -10.8730147855       -0.2985591327        4.2563923854
 C        -9.4962233175       -1.0964533963        2.3490611660
 C        -8.8209467912       -2.3863732915        2.9976606909
 C        -7.5536435583       -1.9471208577        3.8464629383
 O        -6.9807607186       -0.9146765140        3.6249768405
 C        -7.1823310025       -2.8126283921        5.1311824274
 C        -7.3337353482       -4.3641751585        4.6948106142
 O        -7.0535575951       -4.5761081333        3.5118661720
 C        -7.7426571805       -5.4904848449        5.6225569556
 C        -5.7502593990       -2.6029550692        5.5271770723
 C        -8.2419195979       -2.5024884539        6.3003606529
 C       -13.3664933809       -0.1521398039        3.2394234831
 C       -12.9080507745       -2.4375661052        2.4266267974
 C       -13.0695118990        2.0341539390       -3.5933397687
 C       -10.9017306107        0.7264804203       -4.3340145364
 C       -11.0453991187        7.9407824606       -6.7156853992
 C        -9.0411225071        8.2927446832       -4.9545215328
 C       -12.2994956917        8.6575182353        1.8961849823
 C       -12.5910652445       10.0982529848       -0.3549887824
 C        -7.5738685976        4.0270291489        0.0984542863
 C        -7.2365448988        5.5954937611        2.1409608213
 H        -3.5052869952        5.5924959148        0.6008926923
 H        -4.2826062644        4.1865575294       -0.0589511078
 H        -4.5625896818        4.6110178213        1.7318044823
 H        -7.9163678779        8.8128260241       -0.0254735291
 H        -7.3609213674        7.8950526474        1.3917606790
 H        -9.2741959848        8.8402673800        2.3468095028
 H        -9.8976040736        7.2388053457        1.6215791103
 H       -13.3397177981        8.1158238005       -2.1386780319
 H       -13.0263321589        6.3729683601       -1.9778606615
 H       -10.3910118669        7.2233897563       -2.3411400029
 H       -11.2791109492        8.8982329883       -2.5628877198
 H       -10.7985884802        5.0421552463       -7.0750778352
 H       -11.9254803289        5.2825897531       -5.8391020960
 H        -9.5354133590        3.4246725074       -5.6941268465
 H       -11.0215991165        2.7782474910       -6.0503614866
 H       -11.2128772476       -0.3806580162       -2.2772299448
 H       -12.7300443057        0.2540525262       -1.4954502441
 H       -10.4606886696        0.3316263765        0.3745472447
 H       -10.8632012787       -1.3181519474       -0.2533443884
 H        -8.8027346564       -0.2079195911        2.2653628312
 H        -9.8822955481       -1.4797877249        1.3874864241
 H        -8.4540047747       -3.0538437188        2.2454381747
 H        -9.6531709000       -2.9085506572        3.6128117066
 H        -8.7106745600       -5.8969478796        5.1772236742
 H        -7.9484284555       -5.0993523795        6.5970586306
 H        -6.8936978420       -6.1607977190        5.6754871381
 H        -5.5112272738       -3.3692253150        6.2247805520
 H        -5.6609741377       -1.6212840763        6.0253436370
 H        -5.0290040033       -2.4564336907        4.7934897050
 H        -8.3624937162       -1.5195009342        6.5495743856
 H        -8.1936709008       -3.1004494790        7.1910244465
 H        -9.1619525444       -2.6646752293        5.6762848763
 H       -13.2527277273       -0.3519784738        4.2869323082
 H       -14.3410246475       -0.5772608172        2.9187286936
 H       -13.3409964115        0.9717669088        3.0594704964
 H       -13.3470728546       -2.8700180685        3.3206244842
 H       -12.1605096214       -3.2167117524        2.2827370896
 H       -13.6146351535       -2.6465825970        1.6383022059
 H       -13.4474293967        3.0711727257       -3.2907454717
 H       -13.6958428312        1.3586088128       -3.0687038347
 H       -13.1249989382        1.9119642680       -4.7051020570
 H       -11.3946270967       -0.1760204094       -4.0778041864
 H        -9.8186482362        0.6810260489       -4.2237682380
 H       -11.0714370925        0.7364550212       -5.3644055787
 H       -11.7469322423        7.1951890972       -6.9939847314
 H       -10.3143449520        8.2401852439       -7.5477098173
 H       -11.6510259448        8.8767823765       -6.4995770169
 H        -9.3852136514        9.2338902425       -4.5497475526
 H        -8.4326595915        8.4773444334       -5.8547476133
 H        -8.5063698141        7.7598278568       -4.2152568145
 H       -11.8176538236        7.7471875719        2.2102148906
 H       -13.3680551243        8.5141332444        1.9455212239
 H       -11.8347084656        9.4762187174        2.4947845315
 H       -12.0652905900       11.0851525362       -0.1105470078
 H       -13.6146286120       10.2919500023       -0.2011774179
 H       -12.6562643000        9.8861036422       -1.3757118560
 H        -6.8294848350        3.1456212021        0.2898996352
 H        -7.7241605360        4.0675964785       -0.9212481584
 H        -8.4602298901        3.7108327071        0.6043123428
 H        -6.7964132600        6.4936834884        2.5845166878
 H        -6.9612669398        4.7002918023        2.5566285197
 H        -8.3001275073        5.7766389072        2.3476031369
 Na      -10.8071742945        4.9179355154       -1.1848499678
