117

 C        -4.4364024903        5.0770098086        0.6337887401
 C        -5.6541459285        5.9142893700        0.1410702407
 O        -5.4202769099        7.0149861425       -0.3290158034
 C        -7.1818185967        5.4470093322        0.5807711471
 C        -8.1278106110        6.4724228562        0.0594229356
 O        -8.9407700975        6.1779870931       -0.8289207607
 C        -8.1057127693        7.8482592523        0.6007386558
 C        -9.4608108889        8.3363862460        1.2806747895
 C       -10.2111552729        9.0613510464        0.2418229636
 O        -9.6464710553        9.7291130903       -0.5530370521
 C       -11.8645382456        8.8436352225        0.2845081655
 C       -12.0710990709        7.5349412685       -0.4000202575
 O       -11.7969481388        6.4860836292        0.2195148168
 C       -12.5207808299        7.4806730862       -1.9590565399
 C       -11.1752076696        7.5907140026       -2.7505205115
 C       -11.4761006329        7.7373483370       -4.2460806950
 O       -12.5910239738        7.9157214456       -4.6210594009
 C       -10.3983788901        7.4510943782       -5.3142162153
 C        -9.9923964012        5.9130758118       -5.3682200158
 O        -8.8598930208        5.6101123837       -5.0133982311
 C       -10.9666572764        4.7681359684       -5.9228113790
 C       -10.5174765892        3.4001974399       -5.4303010450
 C       -11.0467758703        3.1778121258       -3.9799467816
 O       -10.8770942607        4.1615881660       -3.2768070977
 C       -11.6858256650        1.9006780097       -3.4874360146
 C       -11.1455529229        1.6905460202       -1.8612442184
 O       -10.7198264715        2.4955841672       -1.1444765120
 C       -11.5875428629        0.2920724602       -1.4192378571
 C       -11.2279983346       -0.2087633666        0.0626800252
 C       -12.5248640014       -0.2220813929        0.9718722905
 O       -13.5762073073        0.2991288065        0.6324302775
 C       -12.3915127364       -0.7983879964        2.3372650848
 C       -11.0281389993       -0.7868208658        3.0094814893
 O       -10.9218268465       -0.1935449578        4.1011081620
 C        -9.5194138219       -1.1815380185        2.4678606664
 C        -8.7733155122       -2.3174834834        3.1523426128
 C        -7.6490215734       -1.8532382479        4.0335278907
 O        -6.9953016817       -0.9200985995        3.6572146065
 C        -7.2056448558       -2.7917130396        5.1808132496
 C        -7.3468750986       -4.3205274366        4.6460099489
 O        -7.1956832754       -4.4960375673        3.4274614011
 C        -7.8331808847       -5.4454962443        5.5264249306
 C        -5.7728497506       -2.5177167298        5.7370521504
 C        -8.2225440309       -2.7209205668        6.3695637968
 C       -13.3158869387        0.0829172167        3.2528746485
 C       -12.7288718791       -2.3104976410        2.5423531308
 C       -13.1791830360        2.0402226460       -3.6306119737
 C       -11.1019415093        0.8164788973       -4.3044499759
 C       -11.0393553362        7.8360460417       -6.6283335489
 C        -9.2249304231        8.3710791209       -5.2064391250
 C       -12.2983602503        8.8905454608        1.7736100614
 C       -12.4092456134       10.0370496752       -0.5216510826
 C        -7.4793978518        3.9444876661        0.1026682451
 C        -7.4018500559        5.4502506281        2.0841906828
 H        -4.0424903327        5.7105078957        1.4486101442
 H        -3.5936068073        4.9722928669       -0.0167738192
 H        -4.6894615614        4.1462342288        1.0880914883
 H        -8.1427464676        8.4844650929       -0.3394082105
 H        -7.1800910503        8.1430136907        1.0951965209
 H        -9.2615460895        9.1346020336        1.8737651746
 H        -9.9967972243        7.5388979680        1.7482365689
 H       -13.2986749014        8.1276142749       -2.3744442575
 H       -12.9476953191        6.5186549068       -1.9074609214
 H       -10.6848422155        6.5838772184       -2.6158395100
 H       -10.6445947743        8.3525344258       -2.2352101797
 H       -10.9318667774        4.8987480652       -7.1124868208
 H       -11.9877777569        5.0973854177       -5.7477645975
 H        -9.3913723820        3.3323110094       -5.4800921797
 H       -10.7637335451        2.6256392786       -6.1554342848
 H       -11.1849156809       -0.3012727830       -2.1706993215
 H       -12.6741759190        0.3287965822       -1.4650457898
 H       -10.3864152713        0.4763535035        0.4411404672
 H       -10.8085511289       -1.2056184120       -0.1170701108
 H        -9.1207062356       -0.1332020334        2.6999528822
 H        -9.4918917127       -1.3922170910        1.4823378175
 H        -8.2383092930       -2.9352355174        2.4318073783
 H        -9.5388843843       -2.9164261097        3.6865939453
 H        -8.8502814054       -5.6542346081        5.1514972327
 H        -7.8917954384       -5.1813872121        6.5895366077
 H        -7.1210290066       -6.2222697888        5.3618071664
 H        -5.4718875534       -3.2424748146        6.5744200615
 H        -5.8011816773       -1.5537196333        6.1997395121
 H        -4.9912531308       -2.2475278314        5.0123882173
 H        -8.3694388107       -1.6522212154        6.6884507123
 H        -7.7710317200       -3.1568226856        7.2692245251
 H        -9.2815554791       -3.0090929006        6.0942413232
 H       -13.1580451732       -0.0965884651        4.3774692977
 H       -14.4185382839       -0.1601392374        3.0283573613
 H       -12.9785029919        1.1373348798        3.0916063820
 H       -13.3769177393       -2.4817184052        3.4580737526
 H       -12.1104953514       -3.1928091177        2.7177994178
 H       -13.4899604593       -2.6309246642        1.7480799899
 H       -13.7432122725        2.7122718953       -2.9231190005
 H       -13.6035165042        1.0140234497       -3.4136572167
 H       -13.3244964898        2.2528222575       -4.6772248201
 H       -11.6273726432       -0.0547273458       -4.2413343010
 H       -10.1374008315        0.7352373060       -4.1067893825
 H       -11.1398750244        1.0218833817       -5.4006836721
 H       -11.9350671761        7.2847473893       -6.8528410382
 H       -10.3392790035        7.9024104332       -7.4871221698
 H       -11.3219913914        8.8677060858       -6.4200532542
 H        -9.6313194938        9.3518799413       -5.3602156829
 H        -8.6420157533        8.1089561514       -6.1436710210
 H        -8.5992852950        8.2545158874       -4.3930183857
 H       -11.7637198540        8.0910374997        2.3746000915
 H       -13.3378521917        8.7643382527        1.8361737684
 H       -11.8773104278        9.8638926589        2.1083347592
 H       -11.8661753541       10.9124999198       -0.2741225305
 H       -13.5073428297       10.3563942934       -0.3872197043
 H       -12.5641517578        9.8046483646       -1.6202781883
 H        -6.8886235474        3.4019275626        0.7931518813
 H        -7.0553155891        3.6424432739       -0.9682245038
 H        -8.3975768625        3.5303786654        0.1967449186
 H        -7.5614759066        6.5060968391        2.3274169749
 H        -6.5532624199        5.0377740889        2.6314194838
 H        -8.3894655680        5.0299730336        2.4846382279
 Na      -10.7696379506        4.8997249883       -1.1288852907
