117

 C        -4.4376161966        5.0275729243        0.7302875575
 C        -5.5952259038        5.8922543283        0.4306349455
 O        -5.5572081900        6.8846045064       -0.2200882717
 C        -7.0907636808        5.2789314104        0.7429854322
 C        -8.0380998830        6.3090458357        0.1357010647
 O        -8.8492399317        6.0729101453       -0.7478221247
 C        -7.9072537182        7.8141389866        0.4072427979
 C        -9.2202068013        8.3860801860        0.9972055758
 C       -10.0823218004        9.1893441301       -0.0031910211
 O        -9.5542462521        9.8559783838       -0.9187252664
 C       -11.7716171146        9.0106522338        0.1020269404
 C       -11.8367799314        7.5325922219       -0.4510941208
 O       -11.9049212832        6.6113615263        0.3533078993
 C       -12.0278044124        7.2748330561       -1.8913988130
 C       -10.8457130466        7.2711317574       -2.9392224477
 C       -11.3537236158        7.6164450946       -4.3520277421
 O       -12.4948805133        8.0026009407       -4.4237375557
 C       -10.3938751868        7.3545545910       -5.5849682929
 C        -9.8402136156        5.9085857804       -5.4395803959
 O        -8.7659402295        5.6745655539       -5.0147007229
 C       -10.8355786534        4.8682271828       -5.9778149333
 C       -10.6798412641        3.4984403663       -5.3568112482
 C       -11.1684182903        3.2848757027       -3.9862664643
 O       -11.2869443293        4.2455787577       -3.2703098313
 C       -11.7878389950        1.8299435489       -3.4612234971
 C       -11.3780178391        1.5095033466       -2.0054950540
 O       -10.9596270330        2.4165649211       -1.2567291751
 C       -11.7071628275        0.1317428868       -1.3956848998
 C       -11.3513182022        0.1415496424        0.0369930271
 C       -12.4863694089       -0.1356919362        0.9011157816
 O       -13.6507919009       -0.0730253733        0.5343008968
 C       -12.3037463122       -0.5071093318        2.4926617997
 C       -10.8092200587       -0.4189132298        3.1957810758
 O       -10.7194015399        0.1149193832        4.2804639949
 C        -9.7437323387       -1.1774569274        2.4902022699
 C        -9.1140760894       -2.0906520380        3.5544874902
 C        -7.7945013051       -1.8512390213        4.2584745418
 O        -7.1159750277       -0.8983879385        4.0014473630
 C        -7.3047546166       -2.8490392516        5.3212403239
 C        -7.4028425918       -4.2851620704        4.6247046286
 O        -7.1074952537       -4.3443341897        3.4549295632
 C        -7.8187154112       -5.5473837770        5.4336319056
 C        -5.9506496340       -2.5446660604        5.7598337904
 C        -8.3274068982       -2.7783712867        6.4765573800
 C       -13.3473707685        0.2484821956        3.3016334541
 C       -12.8031366955       -1.9934863714        2.4801953236
 C       -13.3074399592        2.1067507320       -3.4954384230
 C       -11.4175001789        0.6610824469       -4.3090845955
 C       -11.2404516035        7.5072745460       -6.9063686838
 C        -9.2904568536        8.3344066140       -5.3894440255
 C       -12.3729374326        9.2627230203        1.5618506262
 C       -12.2250882327       10.1133242082       -0.8412793216
 C        -7.0430710671        3.9559825601       -0.1140964897
 C        -7.2808256717        5.1256104710        2.2635241549
 H        -4.5841567916        4.0387445120        1.0535569757
 H        -3.7362201944        5.5148840646        1.3955928607
 H        -3.8637046125        4.9726696328       -0.2714043667
 H        -7.5919669078        8.3693071665       -0.4637400129
 H        -7.0922173050        8.0359636676        1.1295710747
 H        -8.9435752267        9.1625628834        1.8107219802
 H        -9.7661837451        7.4543710490        1.2299279872
 H       -12.8185366896        8.0297408733       -2.1240998047
 H       -12.7427306427        6.3362134416       -1.8486488192
 H       -10.2888943703        6.3320055376       -2.8852878734
 H       -10.1423108952        8.0718400999       -2.5919737785
 H       -10.7037266369        4.7883600312       -6.9975233889
 H       -11.8517624466        5.2608356145       -5.9671344944
 H        -9.6509761427        3.1151562704       -5.2709055953
 H       -11.0777241948        2.7419446817       -6.1036700644
 H       -11.2390585073       -0.7169785339       -1.9894916585
 H       -12.8150902454        0.1895414429       -1.4204212518
 H       -10.9101379540        1.0649459123        0.2439327090
 H       -10.5856569042       -0.6320651583        0.1319795167
 H        -9.0664387927       -0.5389775330        1.9854116419
 H       -10.2405994103       -1.8918033462        1.6918765462
 H        -8.8744233226       -2.9997723516        3.0070333215
 H        -9.8697959425       -2.2981664386        4.3133267441
 H        -8.8022467944       -5.3720321126        5.8638325021
 H        -7.1441920727       -5.6471175845        6.2620599180
 H        -7.7113536659       -6.4008840569        4.7469473151
 H        -5.7372409622       -3.1088727003        6.6645219144
 H        -5.8685054075       -1.4488683382        6.1224805616
 H        -5.1766502493       -2.5369018137        5.0020028772
 H        -8.5072505680       -1.7748004975        6.7946758802
 H        -7.9024367603       -3.1893986748        7.3837858439
 H        -9.3420770940       -3.1253426382        6.1363219064
 H       -13.6416746270       -0.3843826342        4.0882251530
 H       -14.2419541875        0.1718463085        2.7210404998
 H       -13.0220370189        1.1564310237        3.8496374665
 H       -12.7081753476       -2.6014582936        3.3469259029
 H       -12.1030751626       -2.5700440151        1.8949739871
 H       -13.7664670546       -2.2348682996        2.1262593797
 H       -13.6250111241        2.4678723540       -2.5441191974
 H       -13.7734064241        1.1827063713       -3.6262480195
 H       -13.5857251332        2.7416482938       -4.3492813678
 H       -11.9589151566       -0.2530724935       -3.8131988502
 H       -10.2593203172        0.4082485251       -4.3063877760
 H       -11.7402193124        0.7426714704       -5.3593430671
 H       -12.2685960621        7.1822070641       -6.9336443282
 H       -10.6346079323        6.8591673326       -7.5476093656
 H       -11.1812052781        8.4500107163       -7.4378905256
 H        -9.4824164608        9.2789627187       -5.9411748802
 H        -8.4020064206        7.8052628560       -5.6721013235
 H        -9.0841729938        8.3635057736       -4.2939476621
 H       -12.0610524705        8.4447623289        2.1204821930
 H       -13.4860514245        9.2680974709        1.4271972608
 H       -12.0050360790       10.1903512547        1.9671187478
 H       -12.3602286991       11.0665268462       -0.2363158393
 H       -13.0466115891       10.0657243894       -1.4467912331
 H       -11.5374825383       10.2325374505       -1.6071928064
 H        -6.8677092201        2.9270254306        0.4365479804
 H        -6.4478945423        4.1549701136       -0.9179571653
 H        -8.0184086281        3.7305350896       -0.6769799284
 H        -7.8360934951        5.9420947559        2.8427629976
 H        -6.2392937194        5.1084867149        2.6161971867
 H        -7.7192501051        4.1888452284        2.5696076577
 Na      -10.7756329827        4.6483441543       -0.8890962335
