117

 C       -12.8242760462       -1.8738537083       -7.4034514298
 C       -11.3825106312       -2.1961353215       -6.6154198949
 O       -11.2034862849       -3.2747982416       -6.1032492502
 C       -10.4975494034       -0.9495073762       -6.2489652345
 C       -11.1889509707       -0.4575318914       -4.9292089041
 O       -11.7885759462        0.6041237116       -4.9789768217
 C       -10.9574384838       -1.3676683260       -3.6922354858
 C       -11.4702061849       -0.5355809829       -2.5041470803
 C       -11.4014477098       -1.4684983410       -1.2416271205
 O       -12.2818429844       -2.1753651534       -0.7718401975
 C       -10.1992633020       -1.3021683897       -0.1724035991
 C       -10.8089931367       -0.1677984458        0.7287481538
 O       -10.9561338100        0.9482007445        0.2677659282
 C       -11.0838447814       -0.3840400920        2.2288341195
 C       -12.0041055545        0.6765638380        2.9275640588
 C       -11.5741518844        2.1672232627        2.7583148928
 O       -10.4689814039        2.3928517206        2.3730479029
 C       -12.7067639751        3.2917655692        2.9925591208
 C       -12.2220873833        4.7238813284        3.2542988611
 O       -11.1082013764        5.0632957449        3.5355608235
 C       -13.3645927908        5.9061971707        3.4127413252
 C       -13.5805600803        6.5542115401        2.0261850412
 C       -12.3724908379        6.4273460193        1.0849751289
 O       -11.9539433216        5.2821625694        0.9154387906
 C       -11.8296798816        7.7310603741        0.3237533918
 C       -10.3458858031        7.6062447069        0.0031344571
 O        -9.7372110640        6.6617346029        0.4130658388
 C        -9.7763978170        8.8056288646       -0.7257586828
 C        -8.2776006106        8.6657934136       -1.0334369813
 C        -7.3472496608        9.4623894201       -0.0187178578
 O        -7.9026594418       10.2885299535        0.7066987910
 C        -5.8224634519        9.0130564642        0.1223008688
 C        -5.8314816055        7.7136360146        0.9497424201
 O        -6.2097209359        6.6529719617        0.5016972300
 C        -5.4094843057        7.7596465964        2.4329468045
 C        -5.2387336597        6.3784426986        2.9860291937
 C        -6.4440873570        5.4001795076        2.5895096890
 O        -7.5588405415        5.8225727651        2.7368395709
 C        -6.2165226704        3.8443246486        2.1789509865
 C        -6.8248670779        3.7415271251        0.7457061455
 O        -8.0036243640        3.9130303003        0.6324875703
 C        -6.1716054017        3.4934079361       -0.5404095352
 C        -4.7711527405        3.5276949461        2.1341045164
 C        -7.0443483787        2.9311419067        3.0276883569
 C        -5.3387599174        8.8011729737       -1.3938632862
 C        -5.0875762728       10.1123177154        0.9149961896
 C       -12.8156999885        7.7396539555       -0.9756755689
 C       -12.0560747955        9.0256020047        1.1927905817
 C       -13.8094582849        3.1361312542        1.9058423290
 C       -13.4622762595        2.8560482484        4.3583603728
 C        -9.9305092252       -2.7511399728        0.4628750471
 C        -8.9238992773       -0.6189565067       -0.8787882674
 C        -9.1039526400       -1.5333080734       -5.9875047887
 C       -10.3956734621        0.1064340423       -7.3966035319
 H       -13.3927373339       -2.7840749184       -7.4057209344
 H       -12.5662671970       -1.5343510494       -8.4169621068
 H       -13.2461579263       -1.0709297340       -6.8615279034
 H        -9.8579813961       -1.6058367087       -3.6915757103
 H       -11.4275417479       -2.2789890703       -3.8213139152
 H       -12.4936676130       -0.1533208244       -2.6089477955
 H       -10.7708410840        0.3358796153       -2.5357761529
 H       -10.1288798284       -0.4224594342        2.7478698918
 H       -11.6815003213       -1.2580009028        2.3888586691
 H       -11.9705952327        0.4750077800        4.0318063486
 H       -12.9654085985        0.5136322739        2.5337824768
 H       -13.1096530906        6.6964348217        4.1126654390
 H       -14.2763085152        5.4891551046        3.8739622858
 H       -14.0146355449        7.5914275586        2.2390786613
 H       -14.4811735637        6.1114307515        1.5617028876
 H        -9.8763248762        9.4690794324        0.0773409771
 H       -10.3720484449        9.0421121523       -1.5414153046
 H        -8.0021172482        9.0027823650       -2.0058047318
 H        -8.0290744611        7.6137920302       -1.0545386471
 H        -6.1818971929        8.3190314961        3.0643322877
 H        -4.4586870926        8.3541701222        2.6894585922
 H        -5.2431494337        6.4675696536        4.0787528792
 H        -4.2612851300        5.9660645306        2.7393601307
 H        -5.0577028110        3.2699160820       -0.5783916609
 H        -6.2769018836        4.4371485863       -1.0896090352
 H        -6.7140831840        2.7017666131       -1.0893108134
 H        -4.3821692381        3.7587529013        3.1916683670
 H        -4.2827390901        4.1562650366        1.4407406748
 H        -4.5842044057        2.4919724645        1.9800265582
 H        -8.1095324314        3.2759580154        3.1088623890
 H        -6.6159186955        3.0114779843        3.9522522891
 H        -7.0974914476        1.8390385046        2.6115759691
 H        -5.6021570856        9.6522672810       -1.9889699553
 H        -5.9274834216        7.9473482882       -1.8260142145
 H        -4.3493991273        8.4601748590       -1.3950506258
 H        -4.0953804972        9.7618539361        0.8961660532
 H        -5.3012056788       10.3241043547        1.9195055965
 H        -5.1412457131       10.9855667147        0.3490927103
 H       -13.8564233960        7.5399064316       -0.6892399703
 H       -12.5824244571        6.9098062259       -1.6241986281
 H       -12.7221706992        8.6775898743       -1.5354226234
 H       -11.8614879595        8.6621113947        2.2680926815
 H       -13.1115823478        9.2933424953        1.1341242555
 H       -11.3385917158        9.8003057409        0.9775312286
 H       -13.4185590691        2.7457093645        0.9465668596
 H       -14.4159702728        3.9724663602        1.7426229688
 H       -14.6067238518        2.4196297899        2.2872351120
 H       -13.6886246308        1.8397526283        4.4788923615
 H       -14.3488028186        3.4585438891        4.5400591631
 H       -12.7669815813        3.1084415538        5.1818162111
 H       -10.0151489277       -3.4566682546       -0.3198915569
 H       -10.6526923213       -3.0005659134        1.1570633793
 H        -8.9839126667       -2.8228526474        0.9807499226
 H        -9.1935107733        0.3923982029       -1.2339432483
 H        -8.7390790261       -1.1750643659       -1.7904036572
 H        -8.1250604052       -0.6457044959       -0.1705639423
 H        -9.1423913879       -2.4982082847       -5.4694836334
 H        -8.5811449617       -0.6947894616       -5.5464673462
 H        -8.5629989304       -1.6459868089       -6.9663840084
 H       -11.1611392890        0.8126666281       -7.4343647373
 H       -10.2843171227       -0.3238774683       -8.3920091417
 H        -9.4513237837        0.5873986545       -7.3201388312
 Na       -9.7625089959        4.8151191472        1.7975205722
