117

 C        -3.9605400115        4.9373611665        1.0301207929
 C        -5.1303220981        5.8135576136        0.5693913038
 O        -4.9298901405        6.8057063281       -0.0736583887
 C        -6.6518435951        5.0869482445        0.7634665061
 C        -7.8655137567        6.2138077519        0.3369248125
 O        -8.8564668548        5.8343914872       -0.2292623783
 C        -7.5960978266        7.7101576740        0.4966697510
 C        -8.8879355415        8.4389646059        0.8267614910
 C        -9.5602554632        8.9223820069       -0.4224858219
 O        -8.7964287949        9.2803656571       -1.3191848224
 C       -11.1821349542        9.1080010367       -0.5183653591
 C       -11.6454536138        7.8137067040       -1.1101298482
 O       -11.8965597339        6.9436288507       -0.2435467852
 C       -11.9815325627        7.4986620161       -2.4528111204
 C       -10.8288701471        7.5054319455       -3.3698670136
 C       -11.3167917423        7.5357677144       -4.8407403597
 O       -12.3875685055        7.9530567230       -5.1358366890
 C       -10.2833471853        7.0602806281       -5.9844318323
 C       -10.0283446127        5.6099627794       -5.6771180224
 O        -9.1571371264        5.3401992582       -4.8089435708
 C       -11.0612127977        4.5559963641       -6.0031144732
 C       -10.9088220801        3.3238581611       -5.1260184026
 C       -11.6491331467        3.2958120528       -3.7730729185
 O       -11.8070735608        4.3913898744       -3.1371284724
 C       -12.2690014245        1.8735715642       -3.1972010933
 C       -11.5691844283        1.5406429892       -1.7552237412
 O       -11.2762530360        2.4357073449       -0.9717732429
 C       -11.8055996794        0.0813369992       -1.2495628490
 C       -11.4481617604       -0.0333809253        0.2290153714
 C       -12.7050241601       -0.2671039805        1.0443155424
 O       -13.8210922243       -0.2627759862        0.5409192927
 C       -12.5155532630       -0.3814165133        2.6457455333
 C       -11.1100429866        0.1103131347        2.9907262704
 O       -10.7146879223        1.2067411248        2.8394883490
 C        -9.9682102042       -1.0499182506        3.2166035655
 C        -9.7274616386       -1.9004795962        4.5980763540
 C        -8.1885090259       -1.8297372796        4.9288138180
 O        -7.6182647210       -0.7853996505        4.6044111530
 C        -7.5200611703       -3.0715335634        5.7809782083
 C        -7.4061321057       -4.2508207440        4.8195199536
 O        -7.0015170425       -4.2052508958        3.7049650285
 C        -7.5313291165       -5.6293210862        5.5324910340
 C        -6.1289564502       -2.6827090550        6.2673355984
 C        -8.3509072450       -3.3218886620        7.0053640023
 C       -13.6443737166        0.7749162200        3.3051310869
 C       -12.9097371948       -1.7698692767        3.0252794416
 C       -13.7392606105        2.3447891506       -3.0291957632
 C       -12.1577495282        0.6374111863       -4.1870540688
 C       -10.8348657763        7.3667663831       -7.3662101689
 C        -9.1058250299        8.0017918429       -5.9437503826
 C       -11.7667411643        9.4056452158        0.9980169033
 C       -11.4224605728       10.3753140099       -1.2903945084
 C        -6.7688589470        4.0323793290       -0.2665067452
 C        -7.1580990261        4.4555507133        2.1878570564
 H        -4.0473361679        4.6259974945        2.1109221694
 H        -2.9636418076        5.4136238979        0.7668497516
 H        -3.8263417983        3.9615532010        0.4997898125
 H        -7.1125854830        8.1218881317       -0.4000043417
 H        -6.8053024597        8.0574537859        1.2002114450
 H        -8.5963020100        9.4365059544        1.3058080855
 H        -9.5430837880        7.7141557395        1.3260699558
 H       -12.6994539642        8.1659143700       -2.9629233951
 H       -12.5315798213        6.6443605728       -2.4948072822
 H        -9.9297874125        6.8596073624       -3.3037712688
 H       -10.1833770200        8.4837182655       -3.3319456809
 H       -10.9527492869        4.4045427558       -7.0833436690
 H       -12.1531146394        4.9730376651       -5.7655592758
 H        -9.8769334669        3.2377478244       -4.8823801666
 H       -11.1862820469        2.4617009706       -5.6201062530
 H       -11.3324878389       -0.5802969219       -1.9676835139
 H       -12.9560131729        0.0404172253       -1.3562119354
 H       -10.9749998905        0.9309807405        0.6359272420
 H       -10.8029512395       -0.8230871387        0.4470890321
 H        -8.9963906353       -0.6195318991        2.8989188794
 H        -9.9993731443       -1.7312969716        2.3853667301
 H       -10.0102541506       -2.9943189115        4.4274086194
 H       -10.3813110585       -1.4164980094        5.3199477589
 H        -6.8503779581       -5.7844150611        6.3234517484
 H        -7.3048260877       -6.3720844587        4.7082535723
 H        -8.5522750521       -5.7935717007        5.9650298117
 H        -5.4763801579       -3.1930312622        6.9006204966
 H        -6.1768572752       -1.7265529880        6.7100735358
 H        -5.6174403629       -2.6190945620        5.3416662718
 H        -8.4663468327       -2.3026883057        7.4242651574
 H        -7.7434542292       -3.8935205675        7.6736111587
 H        -9.1949025077       -3.9046579608        6.9845293094
 H       -13.4356306086        0.7673922652        4.3334868585
 H       -14.6365068178        0.5586500297        3.0111429263
 H       -13.2183247149        1.7037264471        2.9557373814
 H       -13.3190102843       -1.9103814276        3.9725069902
 H       -12.2910354912       -2.5798396680        2.7820382852
 H       -13.7308796868       -2.0550308196        2.4276608799
 H       -13.6314700579        3.1035187388       -2.3395906901
 H       -14.5242258241        1.5894354611       -2.8303281915
 H       -14.0052146245        2.8230324098       -3.9641916650
 H       -12.8341318527       -0.1263763331       -3.7741673930
 H       -11.1162198291        0.1934491175       -4.2016330939
 H       -12.4071760339        0.9659617283       -5.0946382571
 H       -11.9032541328        7.1581582319       -7.7239737479
 H       -10.1990315784        6.8739589711       -8.0920696028
 H       -10.7180304732        8.4001241200       -7.5988175776
 H        -9.3989734553        9.0036351459       -5.6042860246
 H        -8.8049785792        7.9908823645       -6.9265613210
 H        -8.3010942850        7.6540466773       -5.2021271723
 H       -11.4906160410        8.5665061824        1.6284280871
 H       -12.8407749612        9.6109010052        0.9707699030
 H       -11.4152926545       10.3347438317        1.3156570600
 H       -10.9943197577       11.2758039441       -0.8188452345
 H       -12.4518314371       10.5488266654       -1.3196323458
 H       -11.0559928456       10.5155993339       -2.2691806586
 H        -5.9926971525        3.3268470668       -0.0306066168
 H        -6.5952285193        4.3346824682       -1.1769779946
 H        -7.7502903051        3.4444885229       -0.3099242949
 H        -6.3858465333        4.5527690112        2.9309606057
 H        -7.4766107392        3.3826583409        2.2175267644
 H        -8.0036356834        4.9655433864        2.5743631553
 Na      -10.9578877351        4.8844601111       -0.9996619420
