117

 C        -3.9965351192        4.9746655825        1.0777139178
 C        -5.2380983249        5.7142211379        0.6603246569
 O        -5.0556957363        6.7410275342        0.0296151150
 C        -6.5969118464        5.0952445663        0.6598521300
 C        -7.7892890262        6.2319114248        0.2321533183
 O        -8.8296885618        5.7464095706       -0.1315947204
 C        -7.4755863277        7.5769140359        0.6151335044
 C        -8.7689090595        8.3782126578        0.9184866650
 C        -9.4244388314        8.9413884444       -0.4126448240
 O        -8.8649155983        9.1282276028       -1.5028512969
 C       -10.9906480078        9.2044768410       -0.4621916224
 C       -11.8152445511        7.8153134816       -1.0671051133
 O       -11.9438350735        6.8913439624       -0.2938633560
 C       -12.1370525750        7.8295628242       -2.5921173737
 C       -10.9038928878        7.6685357120       -3.4717577200
 C       -11.2474419158        7.5272990470       -5.0067843011
 O       -12.3687993115        7.9017277778       -5.3008355487
 C       -10.1954550247        7.0701671674       -6.1012021732
 C       -10.0718026923        5.5225913311       -5.5257079078
 O        -9.1324925994        5.2518508312       -4.9019395022
 C       -11.1760088518        4.5200555681       -5.9666279616
 C       -11.0354148648        3.2231441538       -5.1468141334
 C       -11.5876551668        3.2117939813       -3.7375663624
 O       -11.7093350444        4.2851037987       -3.1262865565
 C       -12.2691983742        2.0436951485       -3.1443522810
 C       -11.7787969509        1.6299737969       -1.6489709181
 O       -11.2444581529        2.3675246142       -0.9041488611
 C       -11.8147622467        0.1028099191       -1.3613679691
 C       -11.5167664656       -0.1170933678        0.0763872668
 C       -12.7613958835       -0.1434149788        1.1022766732
 O       -13.8291692294       -0.4544599589        0.6422024651
 C       -12.6350114681       -0.2750973661        2.6903795498
 C       -11.1339583301        0.0079852658        2.9779394718
 O       -10.7675779233        1.1315126129        2.6763910406
 C        -9.9392536299       -1.0539530119        3.3311110959
 C        -9.8097354195       -1.6418121877        4.7342884737
 C        -8.2576897059       -1.7697188848        5.0491252902
 O        -7.5589693873       -0.8474608682        4.7506747466
 C        -7.6006433947       -2.8754261810        5.8446767969
 C        -7.4212021381       -4.2266867919        4.8024617382
 O        -7.0703588839       -4.0693721211        3.6379305142
 C        -7.4484240091       -5.6583592650        5.5343414499
 C        -6.1333134735       -2.7865733456        6.3312933580
 C        -8.5450678681       -3.2392274149        7.1180946912
 C       -13.4175804135        0.7640816358        3.3714461609
 C       -13.0413513107       -1.6874120516        3.0248822226
 C       -13.7466031571        2.2935140957       -2.8979661487
 C       -12.2700838935        0.8171791921       -4.0412451289
 C       -10.8957963338        7.1536485404       -7.4698039799
 C        -8.8989343837        7.8793022216       -5.9265463088
 C       -11.5997438712        9.4462782910        0.8943401459
 C       -11.2614249894       10.5422596911       -1.3063022641
 C        -6.7572934327        3.8873591676       -0.3485183008
 C        -6.9799863443        4.5907868352        2.0566716985
 H        -4.1679570603        4.0619599050        1.6578737340
 H        -3.2954937709        5.6320505431        1.5475855913
 H        -3.3146547168        4.6338190358        0.1828187439
 H        -6.8746489492        8.1112997403       -0.0853762926
 H        -6.7021085148        7.5911422963        1.4463316518
 H        -8.5759006763        9.2977534096        1.4658129002
 H        -9.4795492788        7.7355176234        1.3189889007
 H       -12.7378413912        8.6240417597       -2.9258065343
 H       -12.7745012764        6.9417948855       -2.8916884866
 H       -10.4904927409        6.7122590173       -3.3096658048
 H       -10.0080807687        8.2453084800       -3.3462178961
 H       -10.9658379955        4.4301180763       -7.0712491746
 H       -12.2464799154        4.9297074618       -5.7921820257
 H        -9.9975901548        3.1545362224       -4.9454873565
 H       -11.3542394756        2.3157437806       -5.6566013510
 H       -10.9998827523       -0.2836638463       -1.9965676638
 H       -12.7796305005       -0.2567248070       -1.7097721398
 H       -10.6845902263        0.5932788341        0.3612619762
 H       -11.1432008415       -1.1510778047        0.1855763579
 H        -9.0317486061       -0.6848885933        2.9947280989
 H        -9.9337993560       -1.9246431618        2.5469318573
 H       -10.2923719760       -2.6851477280        4.6991357835
 H       -10.3986305818       -0.9920025817        5.3528058842
 H        -6.5714378702       -5.9298790874        6.1500917898
 H        -7.5852518087       -6.4531567159        4.8054083313
 H        -8.3102426027       -5.6180976194        6.2357039815
 H        -5.8137152585       -3.6099402069        6.8723085934
 H        -5.9946075924       -1.9627808436        7.0380950602
 H        -5.3987838349       -2.7983031570        5.5938009892
 H        -8.5138433581       -2.4266742565        7.7184477013
 H        -8.1832645699       -4.1349488602        7.5546346063
 H        -9.5677944942       -3.5683784713        6.9654792668
 H       -13.4249499869        0.4011971801        4.3812455266
 H       -14.3851422923        0.7833274081        2.8544841683
 H       -12.9379599072        1.7629845612        3.3126949452
 H       -13.0878746749       -1.9026338630        4.0800719503
 H       -12.5311968990       -2.4431582766        2.4560298168
 H       -14.0038136459       -1.9996891397        2.6693305067
 H       -13.8989247010        2.8646988027       -1.9810580940
 H       -14.0251099291        1.2983607397       -2.7141280582
 H       -14.3645473802        2.6958475567       -3.7582444288
 H       -12.7192041094        0.0745405002       -3.5111096351
 H       -11.4058908700        0.5089497173       -4.4183051585
 H       -13.0226421147        1.0701763328       -4.8147417944
 H       -11.9270445306        6.8196885865       -7.5585493381
 H       -10.3406589427        6.5485252359       -8.2629344525
 H       -10.9383993999        8.1876939068       -7.8928775408
 H        -8.8978465938        8.9528170198       -6.0312337520
 H        -8.2231683581        7.4111359184       -6.6105404717
 H        -8.6828712593        7.5574245743       -4.9143815878
 H       -11.5110636026        8.5119906091        1.3888792196
 H       -12.6531534612        9.8467966397        0.7935528693
 H       -11.0994325527       10.2555272826        1.4179478054
 H       -10.8774991929       11.5498031101       -0.8842435576
 H       -12.3331955898       10.6879940825       -1.3966023716
 H       -10.8019378012       10.6485754592       -2.2832496273
 H        -6.3651843983        3.0059025733        0.0346173402
 H        -5.9416922474        4.0952346365       -1.1731539297
 H        -7.6620512442        3.7134177950       -0.7926444767
 H        -6.2302418025        4.6445227553        2.8788705296
 H        -7.3425865641        3.5887982108        2.0203827388
 H        -7.8386185365        5.0894853904        2.4433797805
 Na      -10.8528571772        5.0791691658       -1.1189036649
