117

 C        -4.0801094967        4.8777843605        1.1543522921
 C        -5.1694837189        5.7047935945        0.5778423036
 O        -4.8886307746        6.7532688879        0.0656056957
 C        -6.5691624638        5.0644804356        0.5213891850
 C        -7.7676170765        6.0131276241        0.2327640622
 O        -8.8583243285        5.6902517192       -0.2720293890
 C        -7.5738591035        7.4747780009        0.7190398040
 C        -8.8212385435        8.3131276482        0.9074958753
 C        -9.4407247110        8.7051846123       -0.5285563220
 O        -8.8163036887        8.7158824316       -1.5785611837
 C       -10.8480429150        9.2650059373       -0.5083075356
 C       -11.7196340847        8.1657668904       -1.2354864221
 O       -11.8453359535        7.0984964288       -0.6388392724
 C       -12.1661401771        8.3747413887       -2.7981904558
 C       -10.9506247144        7.8491607607       -3.6620890372
 C       -11.4124030875        7.4879065045       -5.1043635739
 O       -12.4045026093        7.9388298068       -5.5947904500
 C       -10.2479190238        6.8199656346       -5.9162214284
 C       -10.0979921474        5.4309565070       -5.4445205568
 O        -8.9745629778        5.0038734933       -4.9753931052
 C       -11.3515652404        4.5394807518       -5.8365848522
 C       -11.3083716586        3.1759960835       -5.1503716015
 C       -11.7790829742        3.2456486445       -3.7348473989
 O       -11.4262464872        4.2521040207       -3.1444390048
 C       -12.4491578946        2.0556679576       -3.0821498367
 C       -11.8238516647        1.7167593630       -1.6802287018
 O       -11.2719628892        2.6215530087       -1.0270552094
 C       -11.8998005881        0.1592201278       -1.2521959847
 C       -11.5467526233       -0.2573118186        0.2032091422
 C       -12.8006201644       -0.3541030835        1.0809367880
 O       -13.9276371345       -0.4590650797        0.6192812553
 C       -12.5406144271       -0.4133202247        2.7043386912
 C       -10.8562435855       -0.0927998761        2.9654151045
 O       -10.5513593209        1.0591843441        2.7228392134
 C        -9.9349338114       -1.1561592735        3.3456505503
 C        -9.6644001276       -1.2508278379        4.9126181806
 C        -8.2622594150       -1.6129490707        5.2390377903
 O        -7.3665597430       -0.8160456348        4.9118543573
 C        -7.8817829817       -2.8465656625        6.0418241907
 C        -7.6634532852       -4.1076117767        4.8778106578
 O        -7.5036215447       -3.8206684096        3.7591455935
 C        -7.4498887560       -5.6323871830        5.3691938816
 C        -6.4252759179       -2.5900867256        6.5477755084
 C        -8.8288061261       -3.3118237798        7.1230503724
 C       -13.3213627238        0.7939118766        3.3550296211
 C       -12.9998778083       -1.7308308046        3.2161903496
 C       -13.8402963000        2.4295594819       -2.6161613868
 C       -12.4836193196        0.9005047723       -3.9782938835
 C       -10.6697155359        6.9012749415       -7.4902211361
 C        -8.8238840187        7.4749780706       -5.9862305917
 C       -11.4321178812        9.5125050583        0.9332501159
 C       -10.9805557725       10.6683386088       -1.3471569371
 C        -6.6201488774        3.8104278134       -0.3977539214
 C        -6.8573325768        4.5652549446        1.9985468985
 H        -3.9110883365        4.0760050799        0.4994394700
 H        -4.0131547514        4.5518786771        2.1920571466
 H        -3.2250896069        5.4474314490        1.0776517484
 H        -6.8876942969        8.1083792363        0.1031576647
 H        -7.0094814313        7.5104435760        1.6151572699
 H        -8.7043678426        9.3055003510        1.4164786943
 H        -9.5581109213        7.7007274191        1.5652345003
 H       -12.5496551591        9.4891617855       -2.9475697497
 H       -13.0125378096        7.7565807533       -3.0489465883
 H       -10.4464935956        6.9377967449       -3.2355163099
 H       -10.0355452652        8.4812540914       -3.7827141080
 H       -10.9684623859        4.2469452733       -6.7699356542
 H       -12.3025669943        5.0414842352       -5.8567135876
 H       -10.1628398480        2.9631934505       -5.1133472938
 H       -11.7296332135        2.3787308574       -5.8120331519
 H       -11.1926688987       -0.3276111548       -1.9105720899
 H       -12.9137758046       -0.0755097303       -1.5478956206
 H       -10.7740267966        0.3820918444        0.6209905986
 H       -11.1716570194       -1.2929977082        0.1970102693
 H        -8.9404686211       -0.9942404529        2.8194632062
 H       -10.1102579695       -2.0580414088        2.9153492794
 H       -10.4178892746       -1.8224511500        5.4034455225
 H        -9.7647546099       -0.2310257486        5.3667257412
 H        -6.3991365333       -5.7261231604        5.4927786765
 H        -7.6807691175       -6.3009464559        4.5198163819
 H        -7.8429378316       -5.9675968007        6.3098883235
 H        -5.8113419820       -3.5099400253        6.8445635550
 H        -6.3355112321       -1.8733653935        7.3694865573
 H        -5.7286720283       -2.3154486746        5.6924202040
 H        -8.7535274127       -2.4964381877        7.9410593668
 H        -8.5844992281       -4.3517171523        7.3813498551
 H        -9.8950691487       -3.3953077639        6.9281676925
 H       -13.4100192442        0.5429837444        4.4689379531
 H       -14.2457583733        0.9108933766        2.7327015562
 H       -12.7838454134        1.7595527665        3.0811815394
 H       -12.6416737647       -1.8737599165        4.2718523031
 H       -13.0748324492       -2.6451123527        2.6156256183
 H       -14.1103925600       -1.7939274122        3.3496402425
 H       -13.8270659379        3.3622340610       -2.0449468276
 H       -14.2387674723        1.5837321410       -1.9276259829
 H       -14.4587428417        2.4653274033       -3.4885518360
 H       -13.1301964448        0.0946501028       -3.4077142224
 H       -11.3444998895        0.5178993396       -4.0917548879
 H       -13.0350400140        0.9833737191       -4.8894578165
 H       -11.6676635912        6.5140324858       -7.8285171746
 H       -10.0309734643        6.3724123358       -8.1233768624
 H       -10.6942704462        7.9180381206       -7.7821593897
 H        -8.9015032051        8.0749691990       -6.8890599635
 H        -8.0732709382        6.7339160566       -6.1802812092
 H        -8.6359417378        8.1428583863       -5.1063268984
 H       -11.6565402105        8.4609429607        1.3018221740
 H       -12.3174988599       10.1150555644        0.8490666695
 H       -10.6961525606        9.9944743082        1.6032589906
 H       -10.4391803322       11.4250718636       -0.8013625460
 H       -11.9903320688       11.0968272002       -1.4128026400
 H       -10.5067946823       10.7948885914       -2.3360442067
 H        -6.9285938496        2.8552119342        0.1748738557
 H        -5.9197211137        3.4324774080       -1.0063044929
 H        -7.6402858795        4.0630389978       -0.9598134827
 H        -5.9524869456        4.4250803641        2.5352702189
 H        -7.4450717953        3.6073517010        2.0903443347
 H        -7.3700734428        5.2881322929        2.6724352814
 Na      -10.7041946976        5.0380924941       -1.1672438136
