117

 C        -3.8947998524        4.7831257126        1.0499662472
 C        -4.9910325677        5.7036108363        0.5548235523
 O        -4.8417770457        6.7470173865       -0.0091859256
 C        -6.7050393925        5.0625656192        0.6758211807
 C        -7.7787820994        6.0541317395        0.2587383706
 O        -8.6940503703        5.6254966926       -0.3832568428
 C        -7.5825081574        7.4482455574        0.6742525532
 C        -8.7933246172        8.1750890554        0.7978039679
 C        -9.4107790416        8.7751111011       -0.4979966519
 O        -8.7779758703        8.3883151491       -1.4977844447
 C       -10.8999191543        9.4165282595       -0.6541252157
 C       -11.6713884766        8.2978043644       -1.4206695038
 O       -11.7981264870        7.1757044934       -0.9214152861
 C       -12.1205606844        8.4517427995       -2.8302942393
 C       -10.9526987020        7.9533114899       -3.6990425104
 C       -11.2286144367        7.6611924458       -5.2134242080
 O       -12.3372358453        7.8748531150       -5.6233518785
 C       -10.2279517514        6.8833803263       -6.0900984974
 C       -10.0451152177        5.3077140185       -5.5757192563
 O        -9.1860921836        4.7513607514       -4.9491320935
 C       -11.3276800115        4.4228205197       -5.9236353042
 C       -11.4240614257        3.0282300660       -5.2771580043
 C       -11.6691459124        3.2090213189       -3.7179227423
 O       -11.4934183719        4.2909465066       -3.0756885113
 C       -12.4638813390        2.0030503255       -3.0363272992
 C       -11.7654816876        1.7518089980       -1.6067056734
 O       -11.2115452431        2.5023660526       -0.8589130002
 C       -11.9743837727        0.2810829842       -1.3308275293
 C       -11.5130560089       -0.0352705091        0.1197486607
 C       -12.6467237773       -0.2845048101        1.1107292068
 O       -13.8118118298       -0.3977549745        0.7821607600
 C       -12.4707791666       -0.4089612311        2.7125615554
 C       -10.9284922268       -0.1282882646        2.9346227871
 O       -10.5008006795        0.9403667633        2.8836313561
 C        -9.9755354960       -1.3528046418        3.3373358384
 C        -9.7169361130       -0.9808587156        4.9418809328
 C        -8.2468071665       -1.5033168769        5.2996834445
 O        -7.2979520717       -0.8212968168        4.9453478377
 C        -7.8960924846       -2.9687728311        6.0836024697
 C        -7.6814608266       -3.9369079220        4.9040998085
 O        -7.8849812440       -3.6912635246        3.7115028288
 C        -7.4911582564       -5.3743900710        5.3363931685
 C        -6.5385083847       -2.6574099102        6.8724562601
 C        -8.8964216875       -3.3471856900        7.1267721515
 C       -13.2927794634        0.7564498735        3.2073183525
 C       -12.8013119408       -1.7206259635        3.3745236303
 C       -13.9611674718        2.6118306298       -2.5866802380
 C       -12.7561542664        0.7471446646       -3.8892122815
 C       -10.5984462168        6.7765919994       -7.5326975142
 C        -8.8395615554        7.5619966619       -5.9075437853
 C       -11.4706296771        9.6027565421        0.7714982846
 C       -10.7666770585       10.8146325179       -1.2065291977
 C        -6.5959852942        3.8685140666       -0.3841013353
 C        -7.0757504523        4.4331922758        2.0698019544
 H        -3.4060852254        4.2577774771        0.2419961284
 H        -4.1432522048        4.1255415633        1.8327587232
 H        -3.0495657150        5.4239646671        1.5222929501
 H        -6.8366207372        7.9741097882        0.1000046754
 H        -7.0807603868        7.5436497566        1.6714177154
 H        -8.7196567575        9.0183300862        1.6308468364
 H        -9.5335615107        7.4428009473        1.2150365774
 H       -12.4825562919        9.4534607358       -2.8734326300
 H       -12.9279770744        7.7423314350       -2.9341869129
 H       -10.4662513104        7.0249197423       -3.2071835154
 H        -9.9987264568        8.6513904364       -3.6342719896
 H       -11.5000483271        4.3345887763       -6.9460418481
 H       -12.1364173063        5.0240701721       -5.3511319536
 H       -10.6120372166        2.3251430107       -5.5263451450
 H       -12.3155338822        2.6181358439       -5.7430366652
 H       -11.4291093731       -0.2855234006       -2.0725646919
 H       -13.0854296960        0.2044979244       -1.5389211375
 H       -10.7648403308        0.6955080262        0.5569418692
 H       -11.0477399443       -0.9559936930        0.1061246539
 H        -9.1054715660       -1.2601337965        2.7201557178
 H       -10.0407368551       -2.4373880796        3.2960871098
 H       -10.5988415423       -1.4784193970        5.4837620715
 H        -9.8183232226        0.0292167431        5.2217626171
 H        -6.5222430341       -5.7558821827        5.4657241821
 H        -7.9226599313       -5.9244295737        4.4820169430
 H        -7.9938559907       -5.6110973157        6.2918051418
 H        -5.9435102127       -3.4318537171        7.3200130043
 H        -6.7087972900       -1.8128917574        7.6350328458
 H        -5.7581110904       -2.3074292640        6.1653565977
 H        -9.0825174728       -2.4796032340        7.7673369977
 H        -8.5541010512       -4.3139292400        7.6018133180
 H        -9.9171763262       -3.6348682013        6.7670591244
 H       -13.0624427206        0.7343019196        4.2363316328
 H       -14.3049142665        0.6870886545        2.8999004311
 H       -12.9339598002        1.6418941676        2.6379408679
 H       -12.4894747519       -1.8210397977        4.3952335967
 H       -12.6157527340       -2.5817507392        2.7759975876
 H       -13.8462929313       -1.9677741665        3.3562994655
 H       -13.7905542732        3.5872349146       -2.2252714636
 H       -14.4711221746        2.0422236145       -1.8232863464
 H       -14.5830705131        2.6338335637       -3.5046189083
 H       -13.5780375612        0.1863880891       -3.3625774454
 H       -11.8610740120        0.1461574457       -4.0350983049
 H       -13.3057268507        0.9252129576       -4.8691928618
 H       -11.5613062873        6.2822222253       -7.6826613155
 H        -9.9817553632        6.1752387504       -8.1382840352
 H       -10.7211043604        7.7080485780       -7.9787470704
 H        -8.7118733453        8.3302348772       -6.6801405436
 H        -8.0396935235        6.8766986758       -5.9514579258
 H        -8.9687088244        8.0612046301       -4.8919185661
 H       -11.5540548137        8.5957718732        1.1509348748
 H       -12.4844180889       10.1376408019        0.8020074587
 H       -10.7114834817       10.0795178745        1.3404784237
 H       -10.0662296451       11.4645207864       -0.5542375307
 H       -11.6277286042       11.3378568521       -1.2506589821
 H       -10.3713333617       10.9313379768       -2.1550117301
 H        -6.7136069309        2.8588719034        0.0129992512
 H        -5.6693185380        3.6405755525       -0.9711708998
 H        -7.4419028770        4.0302905721       -1.0486321352
 H        -6.3296766559        3.6801417777        2.4032134073
 H        -8.0952984659        3.9697259704        2.0950373435
 H        -7.0047489963        5.1538325694        2.8568211313
 Na      -10.7412280100        4.9294452736       -1.1056007261
