117

 C        -3.8754988520        4.7611872223        0.9671143709
 C        -5.0781258496        5.5322307301        0.5770570547
 O        -4.9385298393        6.6145578549        0.0143322680
 C        -6.5116220055        4.8888108889        0.6821861624
 C        -7.5838668523        6.0268287315        0.2004756978
 O        -8.5372228819        5.6448590760       -0.4292666526
 C        -7.5882324622        7.4710799033        0.7886227747
 C        -9.0084493170        8.2221488113        0.8811130580
 C        -9.4093596303        8.5781279254       -0.5948476067
 O        -8.8034953971        8.2849519894       -1.5750541187
 C       -10.7448513560        9.4483298530       -0.6393721951
 C       -11.6334512384        8.3924397798       -1.5419494110
 O       -11.6829499675        7.2880551798       -1.0363163246
 C       -11.9938480333        8.5656919130       -3.0690326870
 C       -10.8804785397        8.0125103220       -3.8164254457
 C       -11.2173671327        7.6228857146       -5.2391183458
 O       -12.3306978185        7.8313867011       -5.7230606862
 C       -10.1112647217        6.7295443877       -6.1244138370
 C       -10.2039715529        5.2100693750       -5.5759827168
 O        -9.2983420564        4.7587599602       -4.9862209834
 C       -11.4813726801        4.4044574854       -6.0312513320
 C       -11.5992182714        3.0481213072       -5.2465476022
 C       -11.8501502708        3.1340429913       -3.7928836016
 O       -11.4971674465        4.1857574276       -3.2605824065
 C       -12.5736011374        2.0943833247       -2.9385409117
 C       -11.8315166072        1.6645224705       -1.5831320403
 O       -11.2400606399        2.4587372584       -0.9296425503
 C       -11.9974749658        0.2122037831       -1.0958334101
 C       -11.4058059774       -0.0223151274        0.2986148174
 C       -12.6493266444       -0.4231940973        1.1699351211
 O       -13.7622495044       -0.3441134634        0.7217337380
 C       -12.2993652699       -0.4258023089        2.6530885330
 C       -10.8108958773       -0.1872214897        3.0549658822
 O       -10.3461984259        0.9934070637        2.9734142317
 C        -9.9683737859       -1.3077524623        3.5684237608
 C        -9.5511240876       -1.0641852381        4.9934299314
 C        -8.1396893962       -1.4629154484        5.3721175014
 O        -7.2602358184       -0.7597355011        4.9806629393
 C        -7.9168436046       -2.7729584463        6.1054289911
 C        -7.9212786965       -3.8799509322        4.9556963235
 O        -8.2155840223       -3.4480038946        3.8106920719
 C        -7.5130051255       -5.2915518563        5.2893647990
 C        -6.6944460358       -2.7064640579        6.9918010539
 C        -9.0749923251       -3.2666029696        7.0379259856
 C       -13.2061964210        0.7994170862        3.2214446630
 C       -12.8073472572       -1.7694030198        3.3728887542
 C       -13.9359633610        2.8621179578       -2.6048478002
 C       -12.9637321949        0.8442370999       -3.7526315499
 C       -10.5391892613        6.7541284099       -7.5594236308
 C        -8.5984789606        7.5923887886       -5.8387589849
 C       -11.5820420399        9.5850499323        0.7581022596
 C       -10.5080073169       10.8456929754       -1.2107184788
 C        -6.4845402228        3.7860804200       -0.4220044020
 C        -7.0710176889        4.4307307442        2.0665399679
 H        -3.1430451575        4.6908939070        0.0877165334
 H        -4.0716180751        3.7219753634        1.3372103801
 H        -3.2879562434        5.2164814045        1.7954694672
 H        -7.1427954152        7.9958157878       -0.0516757069
 H        -6.8263059416        7.7941715640        1.5614794828
 H        -9.0761403272        9.1910764134        1.3880961091
 H        -9.7882981165        7.6377230725        1.3531819487
 H       -12.1430962278        9.5892428588       -3.1900669686
 H       -12.9086263830        7.9372955694       -3.1611263918
 H       -10.3133381557        7.2171851312       -3.3059025663
 H       -10.0773865701        8.7969915869       -3.8288229972
 H       -11.4413283362        4.0125872210       -7.1380811326
 H       -12.3213342685        5.0868939555       -5.8145031575
 H       -10.6601807985        2.5872093010       -5.3028907317
 H       -12.2684313864        2.4792682891       -5.8517244865
 H       -11.5379514205       -0.4786570880       -1.8470405174
 H       -13.1184535644        0.0855555548       -1.1001825164
 H       -11.1346126445        0.8818570706        0.8578867011
 H       -10.5088640503       -0.6657258601        0.2965141203
 H        -9.1327848210       -1.3670190517        2.9285581667
 H       -10.3177657616       -2.4118694885        3.5000073727
 H       -10.4641790179       -1.3028140088        5.6254834311
 H        -9.5225034059        0.0097290901        5.1888491719
 H        -6.3707449736       -5.3549771186        5.3874226993
 H        -7.7648223362       -6.0213736278        4.5638903638
 H        -7.8288972164       -5.5461392301        6.3123212537
 H        -6.5725048658       -3.7068732322        7.3366927690
 H        -6.8893419983       -2.0838758137        7.8695194502
 H        -5.6870686498       -2.5053032520        6.7120995171
 H        -9.7169320519       -2.6391427729        7.5549026012
 H        -8.6998766995       -4.1270713827        7.6281047543
 H        -9.7389365700       -3.8112233410        6.3119462594
 H       -12.8622543578        0.8823002824        4.1884342314
 H       -14.1863333731        0.4435204579        3.1944194419
 H       -13.2218681937        1.5719654671        2.5690302724
 H       -12.7109296880       -1.8073345470        4.4110186795
 H       -12.4223638426       -2.6658423078        3.0006822461
 H       -13.8212473437       -1.9610522473        3.0867274386
 H       -13.7495919131        3.8465688776       -2.1789051083
 H       -14.4771341508        2.3078375315       -1.9457749176
 H       -14.4999909981        2.9148399382       -3.5417657033
 H       -13.6798239034        0.2362038056       -3.4132003184
 H       -12.1015287973        0.3645608533       -3.9621804130
 H       -13.4265864443        1.2108141719       -4.6944644428
 H       -11.5176979974        6.4217985565       -7.6223968340
 H       -10.1194199312        6.0650571089       -8.3172386564
 H       -10.5764670944        7.7855645397       -7.9621371482
 H        -8.6924131885        8.5485101605       -6.3663401278
 H        -7.7129470873        7.0138697096       -6.2356092187
 H        -8.5507645058        7.7506924036       -4.8307034212
 H       -11.7470763153        8.6943603358        1.2979481155
 H       -12.5695797338        9.9417837597        0.3889324816
 H       -11.0723517416       10.3167132225        1.3893276709
 H        -9.8632456853       11.6074521370       -0.8125487860
 H       -11.4728229460       11.3311522472       -1.4190925467
 H       -10.2261304797       10.7016926677       -2.2294806980
 H        -6.3702470149        2.7996883308       -0.1658163731
 H        -5.4765709304        3.8385251366       -1.0116254933
 H        -7.2838424315        3.9285845204       -1.0256309265
 H        -7.2276575361        3.3845582410        2.3971375278
 H        -8.0333286727        4.8411243531        1.9921571265
 H        -6.5711618191        4.8906559568        2.9286541530
 Na      -10.8157825236        4.8460986423       -1.0119168537
