117

 C        -3.8408076749        4.6651523734        1.0030389916
 C        -5.1079518844        5.4676094806        0.5734379162
 O        -5.0270214481        6.5633786276        0.0862933934
 C        -6.5575562710        4.9275127298        0.5746761831
 C        -7.5728060747        5.9756829956        0.2052987176
 O        -8.5592484172        5.6296654465       -0.5199478142
 C        -7.4489232479        7.3660933721        0.7708032149
 C        -8.9171271794        8.1074269489        0.8181892054
 C        -9.4666022561        8.5450151099       -0.5015904327
 O        -8.9190148437        8.3283486168       -1.5251872446
 C       -10.8225935129        9.4064634340       -0.7852745608
 C       -11.5235610264        8.3940925206       -1.5908527777
 O       -11.6879372930        7.2541617979       -1.1334465081
 C       -11.8279376287        8.7585733713       -3.1160944436
 C       -10.7031805990        8.0904928402       -3.9871631932
 C       -11.1880413696        7.5313351800       -5.2909219806
 O       -12.2415256118        7.7186352912       -5.8372738499
 C       -10.1784237726        6.7348345136       -6.0964115896
 C       -10.2768971108        5.2858784673       -5.5827652333
 O        -9.3429806188        4.6920261246       -4.9784603932
 C       -11.5126541531        4.4781307422       -6.0818981992
 C       -11.6200345979        3.0465217871       -5.3425999412
 C       -11.8592876252        3.2541487192       -3.8271709592
 O       -11.4369972897        4.2243356699       -3.2598754195
 C       -12.7773577206        2.1887324687       -2.9439523102
 C       -11.9506725983        1.6978441336       -1.6249878656
 O       -11.2494380038        2.5352597516       -1.0064877722
 C       -11.9126149685        0.1958909930       -1.1192113941
 C       -11.3898481459        0.0475193211        0.2859147981
 C       -12.6135102228       -0.2943082549        1.3173756956
 O       -13.6853495415       -0.5112372808        0.7814706128
 C       -12.2956005500       -0.4480337017        2.8061425121
 C       -10.7592678113       -0.2168930988        3.1431548585
 O       -10.2782622511        0.9900390253        3.0130276595
 C        -9.8660620295       -1.1972593384        3.7058863779
 C        -9.5426906174       -0.9313489653        5.1466039197
 C        -8.1049949379       -1.2591421355        5.4735387293
 O        -7.0753299688       -0.7487144574        5.0869736512
 C        -8.0162265565       -2.8122470314        6.1802264373
 C        -7.9334434665       -3.7638935971        4.9877205063
 O        -8.4827078859       -3.4712865494        3.9605915900
 C        -7.4738770698       -5.1446553143        5.1730118922
 C        -6.7432466446       -2.8354663230        7.0970484398
 C        -9.4022443771       -3.1644940294        6.9560543345
 C       -13.1032141734        0.8082581619        3.4002171967
 C       -12.9737268853       -1.8004957046        3.3047663091
 C       -13.9353221108        3.0258935760       -2.4683221872
 C       -13.2037344529        0.8510442505       -3.7094104505
 C       -10.3879073152        6.8997500010       -7.6049409159
 C        -8.7550133386        7.1779839070       -5.9104640064
 C       -11.5736160374        9.5654164713        0.5487460542
 C       -10.3435249471       10.7255324283       -1.3375995292
 C        -6.4628435371        3.7283006935       -0.3904782124
 C        -6.9010623146        4.4167298249        2.0048477924
 H        -2.9844514892        4.9712833749        0.3566086061
 H        -3.9668810000        3.5126102058        0.8706937300
 H        -3.5033046973        4.7581908017        1.9946410621
 H        -6.5476898808        7.9742270149        0.4966972482
 H        -7.2207987943        7.2173284678        1.8257810052
 H        -9.0679672935        8.8981465555        1.4569000679
 H        -9.6000410667        7.3976100540        1.2451460074
 H       -11.8932846978        9.9019558122       -3.1697756326
 H       -12.7668245433        8.1876090325       -3.1883496624
 H       -10.2906786231        7.2434194990       -3.4563975324
 H        -9.9163409670        8.7548459748       -4.0995816988
 H       -11.2087216395        4.0914397398       -7.1321597768
 H       -12.4047563930        5.0525517594       -6.0897791599
 H       -10.7263478798        2.4651334387       -5.5147131766
 H       -12.4576583502        2.6124526210       -5.8856487673
 H       -11.2043327831       -0.3047191943       -1.8369619564
 H       -12.9141769275       -0.2290643852       -1.1961666333
 H       -10.9234357591        0.8991502641        0.7112708249
 H       -10.5440020031       -0.7684737534        0.2940692606
 H        -8.8520057813       -1.3247091146        3.1579675567
 H       -10.3116995910       -2.1725401695        3.5666487131
 H       -10.3022538315       -1.3480070517        5.7295736176
 H        -9.7681930924        0.1611726337        5.4592198706
 H        -6.3533495038       -5.2280362198        5.2590385414
 H        -7.7604177247       -5.8010762578        4.3429795269
 H        -7.7706464455       -5.4912625207        6.1464863108
 H        -6.4814288139       -3.8799025692        7.3603101201
 H        -6.7662546423       -2.2462101003        7.9197205049
 H        -5.8193694247       -2.5108920201        6.6685262295
 H        -9.9013962419       -2.2941734266        7.4657930070
 H        -9.2568080626       -3.8735880038        7.7640941245
 H       -10.1398146769       -3.5058944101        6.2479792598
 H       -12.7549294964        1.0170116049        4.3984696219
 H       -14.1450662445        0.5858149790        3.3372060182
 H       -12.9793590614        1.4716866180        2.6158091918
 H       -12.9294754752       -1.9028472840        4.3665487460
 H       -12.4018655610       -2.7016328460        3.0333213582
 H       -14.0111444608       -1.9981950609        2.9145879068
 H       -13.5789066785        3.8045129712       -1.7899666958
 H       -14.6220249274        2.3542611950       -1.8841369811
 H       -14.4339695735        3.4208583706       -3.2866697460
 H       -13.7669703172        0.0721207537       -3.2460643582
 H       -12.2946034036        0.4090992274       -4.1237405847
 H       -13.7795464509        1.0857774755       -4.4705834513
 H       -11.4328143071        6.7173270498       -7.9199899227
 H        -9.9795965188        6.0522147399       -8.1860170062
 H       -10.0739386714        7.8751784042       -8.0497992158
 H        -8.6596367514        8.2397464490       -6.0122014207
 H        -8.3661708532        6.6719838045       -6.7985616651
 H        -8.2651392331        6.7739108206       -5.0410433663
 H       -11.7569775369        8.6402225518        1.1352609909
 H       -12.5191821813        9.8682366349        0.2660960202
 H       -11.0091975613       10.3042405079        1.1540665069
 H        -9.6954351906       11.2166689766       -0.6857273886
 H       -11.1385300111       11.5095756605       -1.6511946024
 H        -9.8223333866       10.5826581228       -2.3542589305
 H        -5.9816289194        2.9213901385        0.1283354118
 H        -5.7177821703        3.8462299965       -1.0332400827
 H        -7.3973700832        3.3847280006       -0.9186537766
 H        -7.4674548429        3.5194336169        2.0573031472
 H        -7.6209596155        5.1182281685        2.3956222365
 H        -6.0199247421        4.3145529164        2.6760003031
 Na      -10.8572872823        4.8469197015       -0.9868097859
