117

 C        -3.9474475914        4.5806289090        1.0378183201
 C        -5.0638528334        5.4843896061        0.4839819783
 O        -4.8242985061        6.6298647014        0.1729645668
 C        -6.5818406205        4.8012560459        0.4615102580
 C        -7.7676900048        5.7097327343        0.1983616721
 O        -8.6211869441        5.3443451049       -0.5546135070
 C        -7.6436809454        7.1554223235        0.8423053347
 C        -8.8941553451        7.9767240240        0.8004692299
 C        -9.3683739103        8.3792352719       -0.6071677161
 O        -8.4714274685        8.3159888901       -1.4148259219
 C       -10.6919039963        9.1888956986       -0.8349891487
 C       -11.4400758359        8.3251366705       -1.8376977146
 O       -11.8252808067        7.2268245962       -1.4653946402
 C       -11.6622666282        8.6838323927       -3.2975964504
 C       -10.4708230499        8.1582718798       -4.0761218520
 C       -11.0160076517        7.4253000241       -5.3591803969
 O       -12.1650966538        7.5764566851       -5.7819401531
 C       -10.0058478067        6.6322354769       -6.2913722791
 C       -10.3763413279        5.0420584358       -5.7256075415
 O        -9.5559060279        4.5430322324       -5.0538388184
 C       -11.6933917291        4.3599223858       -6.1105327412
 C       -11.9113429924        3.1400585524       -5.2303213627
 C       -12.0107064081        3.2927662426       -3.7701648655
 O       -11.4134698074        4.2435337256       -3.2632773836
 C       -12.7995670618        2.3509405226       -2.8533806804
 C       -11.8897266953        1.8833104682       -1.6113917323
 O       -11.3697933626        2.7332134778       -0.9870275209
 C       -11.7917447739        0.3327114721       -1.2384267565
 C       -11.4262288233        0.2113884880        0.3047447652
 C       -12.6004298107       -0.2102324755        1.1964892279
 O       -13.5870618706       -0.7545313732        0.7768192143
 C       -12.2515326931       -0.2517688786        2.8607926104
 C       -10.8371804264        0.1440824712        3.1255929248
 O       -10.3692553388        1.1653325571        2.8240453669
 C        -9.9947320009       -0.9717643577        3.9464603610
 C        -9.3043344977       -0.3519674381        5.2133608922
 C        -8.0801794760       -1.3574132926        5.6292733826
 O        -7.0046054780       -0.7989216805        5.6123141214
 C        -8.2123616081       -2.8464109239        6.2765059524
 C        -8.1336950475       -3.8816522236        5.0528100603
 O        -8.7850197197       -3.6863051062        3.9930802721
 C        -7.1683268416       -5.0732833058        5.1892844332
 C        -7.0086083937       -3.0282098745        7.1930644464
 C        -9.5174872830       -3.0334491328        7.1465100661
 C       -13.0768141831        0.8519071035        3.7170196826
 C       -12.8120998734       -1.6593854109        3.3676035112
 C       -13.9671192734        3.1122769140       -2.1763794205
 C       -13.4422920611        1.2944552233       -3.7460013533
 C       -10.3703503904        6.7939640915       -7.8277514098
 C        -8.4870764823        6.9254398631       -5.9746623425
 C       -11.4531472337        9.5986555583        0.4276775966
 C       -10.3127894028       10.5324471000       -1.4398054639
 C        -6.6976608131        3.5853350241       -0.3633849417
 C        -6.7031170781        4.3184744197        1.8726117296
 H        -3.0512912697        5.0975208769        1.2783555934
 H        -3.6971433890        3.8009451676        0.4089205874
 H        -4.2043018467        4.1425469838        2.0081584951
 H        -6.9914197210        7.6657079033        0.1520300746
 H        -7.1127907442        7.4205072895        1.7795732739
 H        -8.9104293338        8.9102184497        1.4981092602
 H        -9.7443067353        7.4552587582        1.3046238509
 H       -11.7524430498        9.6994366269       -3.3538831930
 H       -12.5161185058        8.0789169784       -3.6055302816
 H        -9.7800727462        7.4668838195       -3.4746644377
 H        -9.9114580400        9.1455488109       -4.4196177791
 H       -11.6610193322        4.0371999428       -7.1324592260
 H       -12.4940704850        5.1051837396       -5.9783973744
 H       -10.9127345039        2.5856968800       -5.2419656428
 H       -12.7170187422        2.5773252737       -5.7431346755
 H       -11.0520766325       -0.0430891480       -1.8921628620
 H       -12.7515836234       -0.1731108232       -1.4293459640
 H       -11.0209039130        1.1591101566        0.7801456285
 H       -10.6797603902       -0.4692809660        0.5576244162
 H        -9.1857040613       -1.4048650650        3.4157089146
 H       -10.6815814928       -1.8368607225        4.2748774613
 H       -10.0499995145       -0.2492642149        6.0586812709
 H        -9.0405398981        0.6299714290        5.0955852735
 H        -6.1384692662       -4.7498720647        5.3030257314
 H        -7.1847568242       -5.7289116619        4.3605491030
 H        -7.3775601025       -5.6362430809        6.1141670807
 H        -6.8748277318       -4.0286831658        7.6112852904
 H        -6.9974034689       -2.2644405901        8.0636062292
 H        -6.0416452327       -2.6211835148        6.8254659279
 H        -9.4333889276       -2.6679532374        8.1659607411
 H        -9.6494180544       -4.0913911860        7.4623757518
 H       -10.3805304452       -2.4580951410        6.6870834388
 H       -13.1448286173        0.3073707795        4.6893254882
 H       -14.1106480347        0.9051413598        3.2447942619
 H       -12.5273188555        1.8406591912        3.6524984937
 H       -12.7760943275       -1.9606854678        4.4704619469
 H       -12.3356833562       -2.6312088508        3.0206272526
 H       -13.8997366768       -1.7219591579        3.0913805994
 H       -13.4731745375        3.8021097617       -1.4611343433
 H       -14.6144011094        2.4656421478       -1.6488546285
 H       -14.5290750284        3.7158546301       -2.9855039094
 H       -14.0802452150        0.6515763017       -3.0507740960
 H       -12.8193150919        0.5236173664       -4.2959241972
 H       -14.2790484778        1.7410023038       -4.4890139940
 H       -11.3271190547        6.7384991579       -8.2682380643
 H        -9.8272623573        6.0643204633       -8.4342967678
 H        -9.8704318054        7.7024325628       -8.1261767575
 H        -8.4087322088        8.0283748842       -5.8541449286
 H        -7.7931719902        6.5107454227       -6.7434841558
 H        -8.2707530620        6.4009102860       -5.0471534344
 H       -11.9987124103        8.8024976898        0.9006896868
 H       -12.2779674244       10.3010972898        0.0628210839
 H       -10.7423735610       10.0021023975        1.1319302015
 H        -9.8686054036       11.2874186937       -0.7136799780
 H       -11.1985578167       11.0043477191       -1.8079465288
 H        -9.7084013688       10.5241674075       -2.3062360428
 H        -5.7358081403        3.0268120222       -0.4542702296
 H        -6.9178069382        3.8362500119       -1.5504030964
 H        -7.4701867201        2.9616598265        0.0089092468
 H        -7.6810401487        4.4272164403        2.4391316233
 H        -5.9903573485        4.8074047370        2.5320107122
 H        -6.3645143317        3.3040262694        1.7621560762
 Na      -10.8418381777        5.0939522262       -1.1465668058
