117

 C        -3.9090761600        4.5359393538        0.9382019691
 C        -5.1033666195        5.3511239265        0.4606021643
 O        -5.0217768020        6.5251639250        0.1688445339
 C        -6.4855476060        4.5932843360        0.4982897958
 C        -7.6441666176        5.7664702887        0.0716632040
 O        -8.6508857506        5.2376166759       -0.3613070933
 C        -7.7521722034        7.0360973109        0.8460729458
 C        -9.0039221876        7.8835094586        0.8648980153
 C        -9.2441243376        8.4484340973       -0.6497015931
 O        -8.3522158224        8.3547173213       -1.4072350813
 C       -10.6268288262        9.1729260352       -0.9497667374
 C       -11.4750680237        8.2213990659       -1.9036937912
 O       -11.8880263588        7.1601413018       -1.4406418919
 C       -11.5779658461        8.6498177104       -3.4496487540
 C       -10.3918592182        8.1717586828       -4.2502260293
 C       -10.8419461372        7.4619177449       -5.4825735988
 O       -12.0392298727        7.4303969296       -5.7295277706
 C        -9.9354592462        6.4634018384       -6.2521057671
 C       -10.3707339571        5.0821142278       -5.7691705609
 O        -9.5777745194        4.3835752881       -5.1886505744
 C       -11.7543737755        4.4623734057       -6.1260296188
 C       -11.9709719239        3.1530213128       -5.3104254694
 C       -12.0035489669        3.4674964870       -3.7602603577
 O       -11.4403428141        4.4171557317       -3.2528045664
 C       -12.9543890735        2.4165180585       -2.7296954153
 C       -11.9511478601        1.9371049312       -1.5611023860
 O       -11.3534048674        2.7658944406       -0.8772574470
 C       -11.8981321961        0.5124911254       -1.0867929592
 C       -11.4092228847        0.3568033709        0.4102941134
 C       -12.6364600420       -0.2441701177        1.2922178720
 O       -13.5454732940       -0.6963961846        0.6434589886
 C       -12.4017320365       -0.1912034601        2.7684035963
 C       -10.8192156062        0.2155706091        3.2099050221
 O       -10.2268467611        1.2549545556        2.7495343268
 C       -10.0314332209       -0.8163995422        4.1001434923
 C        -9.1009777234       -0.3416003308        5.1705450672
 C        -8.0223957995       -1.3152555968        5.8534435968
 O        -6.8972749612       -0.8992158496        5.8587186004
 C        -8.2526207370       -2.7266675667        6.2566855936
 C        -8.1596106780       -3.8678070255        5.1138655463
 O        -8.9020085400       -3.8241812119        4.1477596168
 C        -7.1337235993       -4.9282142546        5.2093613782
 C        -7.1246597147       -3.0713350786        7.2048541485
 C        -9.6272120466       -3.0103982034        7.0823117375
 C       -13.2412904574        0.8869102146        3.5440706337
 C       -12.7033518270       -1.5950150215        3.3420092350
 C       -14.0093785950        3.3001412349       -2.0271509637
 C       -13.5850808445        1.2619247011       -3.6473578275
 C       -10.2971150752        6.5750729855       -7.6984311181
 C        -8.5600609131        6.8785609206       -6.1181431291
 C       -11.3470107120        9.3335959575        0.3165950229
 C       -10.2099737998       10.6110159778       -1.6045665529
 C        -6.6546370091        3.5480251453       -0.5906474506
 C        -6.7446920161        4.3150825041        2.0928918365
 H        -3.1191199352        5.1430249349        1.4173603160
 H        -3.4091225268        4.0212117006        0.0375940360
 H        -4.0907306996        3.8357404537        1.6791877772
 H        -6.9666955078        7.7416721342        0.6358361249
 H        -7.4724249569        6.8546067832        1.9151766097
 H        -9.0148975431        8.6263719756        1.6988306731
 H        -9.9537371772        7.3118759458        1.1336230807
 H       -11.7871089590        9.6870866375       -3.4342674079
 H       -12.3054880924        7.9766501591       -3.8635941272
 H        -9.9253973783        7.2881062194       -3.6444166931
 H        -9.6343906695        8.9617494734       -4.4727417536
 H       -11.7599233183        4.3563429286       -7.3370965181
 H       -12.5710252468        5.1148653748       -5.8238050390
 H       -11.1885380751        2.4466535108       -5.4449996079
 H       -12.9461627447        2.7895508421       -5.6179758395
 H       -11.0826857000        0.1693136963       -1.7791770164
 H       -12.8329107976       -0.0395548963       -1.3056011548
 H       -11.0471112927        1.2678246356        0.7742628104
 H       -10.5325421979       -0.3007260879        0.5839096582
 H        -9.4096952954       -1.3683066900        3.4011841504
 H       -10.7831194781       -1.4866956004        4.5685643746
 H        -9.7968028808       -0.1172725724        5.9820671682
 H        -8.7737328305        0.7115735587        4.9873094600
 H        -6.0498993059       -4.5810934492        5.2829407341
 H        -7.1976025633       -5.5503458720        4.3621736967
 H        -7.2640061759       -5.5493248062        6.0727910324
 H        -7.3571352828       -3.9768488208        7.8546254783
 H        -7.0522062504       -2.2485274595        7.9126198173
 H        -6.0620099390       -2.9805839800        6.9531540477
 H        -9.5233544285       -2.8822095550        8.1304424612
 H        -9.8243155854       -4.0595124495        7.1945502532
 H       -10.4050527738       -2.3120530458        6.7135691272
 H       -13.3929498859        0.2879136616        4.4638188894
 H       -14.2254026450        0.9813166302        3.0541505454
 H       -12.6761079117        1.7827487145        3.6254011990
 H       -12.5344702451       -1.8057890010        4.3607653357
 H       -12.1120994497       -2.3876375980        2.9522472133
 H       -13.7640746288       -1.8443588866        3.2416301598
 H       -13.4990072866        4.1741131576       -1.5422711800
 H       -14.4632865891        2.7050855709       -1.2539069826
 H       -14.7595346400        3.6182748534       -2.7304211587
 H       -14.0281876492        0.3833798850       -3.1183548235
 H       -12.6946527774        0.7640349128       -4.1572608974
 H       -14.2403987120        1.5776701530       -4.3855378611
 H       -11.2684845691        6.4600345782       -7.9917400828
 H        -9.7331933356        6.0181701715       -8.4253582689
 H        -9.9693422054        7.5723585177       -7.9332802739
 H        -8.6622995068        7.9326483341       -6.4176777556
 H        -7.8327453156        6.2704464745       -6.7748935753
 H        -8.2769141164        6.7451916495       -5.1241984422
 H       -11.7002421348        8.3535985824        0.5992546984
 H       -12.2172897902        9.9554835741        0.2689317255
 H       -10.6039353810        9.6367242483        1.1032319438
 H        -9.7171755597       11.2075019208       -0.9812469592
 H       -11.1068805394       11.1780674189       -1.9305854293
 H        -9.6593583456       10.5021333938       -2.5210909507
 H        -5.7188817439        2.9817659211       -0.8300705431
 H        -7.0362615034        3.8520012846       -1.5069772339
 H        -7.3571730825        2.7862437702       -0.1671056524
 H        -7.7445364662        4.6543251998        2.4167168610
 H        -6.0145454798        4.8075384209        2.7320263547
 H        -6.5947114425        3.2001882619        2.2289337782
 Na      -10.8355816735        5.2383215739       -1.2703244475
