117

 C        -3.9039252074        4.4183054377        0.4782039761
 C        -5.1982200602        5.2238553137        0.4005588761
 O        -5.2439094116        6.3939238657        0.0995043880
 C        -6.5494800220        4.4166469278        0.6279631269
 C        -7.8280478081        5.2931324978        0.3493595351
 O        -8.6350639160        4.8252108842       -0.4054778304
 C        -7.8648616667        6.6765394222        0.9510688987
 C        -9.0993369842        7.6894727688        0.6502087406
 C        -9.1760176430        8.3610043879       -0.7184018151
 O        -8.1818112857        8.4049154940       -1.3376963559
 C       -10.5156793894        9.1975914766       -1.1636622501
 C       -11.3132361847        8.1781170268       -2.1212260434
 O       -11.8171128355        7.1399752143       -1.6650815530
 C       -11.3554066794        8.5240089492       -3.6120423161
 C       -10.2392161491        7.9782480314       -4.4339672059
 C       -10.8236193351        7.2043581906       -5.5866340611
 O       -11.9647933747        7.3687380065       -6.0230383219
 C        -9.8517069414        6.1965683914       -6.4859618677
 C       -10.1541862978        4.7163700883       -5.9477772788
 O        -9.3147730521        3.9151532496       -5.5765463870
 C       -11.8051358294        4.2287658533       -6.1605991442
 C       -12.3880394352        3.2500308100       -5.0743287808
 C       -12.3416662331        3.6772667012       -3.6357190415
 O       -11.7741175757        4.7563775895       -3.3675360585
 C       -13.0537224313        2.8736257979       -2.5408429272
 C       -12.0806501187        2.5048170053       -1.3011252233
 O       -11.3333466833        3.3218766747       -0.8577831285
 C       -11.8813883134        1.0415147151       -0.8840635279
 C       -11.1554102326        0.6987543411        0.4875902901
 C       -12.3305874655       -0.1223209600        1.2796569696
 O       -13.2932562127       -0.3927321374        0.6355961780
 C       -12.1881218691       -0.2056505319        2.8200053473
 C       -10.7042866926        0.1906982228        3.3583735452
 O       -10.2990464328        1.2419400156        3.2008050139
 C       -10.0402983935       -0.9532756110        4.2421690331
 C        -8.8505598526       -0.3360153384        5.0074596685
 C        -7.9220867708       -1.3214635324        5.8962483459
 O        -6.8450912438       -0.8937921833        6.2383564724
 C        -8.3913713505       -2.6329934867        6.4784730923
 C        -8.3138831881       -3.6708585248        5.2490169351
 O        -9.3304985342       -3.8421132248        4.5495248663
 C        -7.0851347771       -4.4737234843        4.9536323002
 C        -7.5713955132       -3.1225848965        7.7390169984
 C        -9.9462615778       -2.5617284962        7.0239641097
 C       -13.1379050333        0.9233009643        3.3202506608
 C       -12.7491030017       -1.5114265703        3.3542661780
 C       -14.1233264941        3.7861913430       -1.9204912572
 C       -13.7499153343        1.7255337647       -3.1890706075
 C       -10.2780854805        6.2503871772       -7.9479447725
 C        -8.2761508845        6.3963986051       -6.3415495324
 C       -11.3086600190        9.4282538887        0.1238806670
 C        -9.9986380202       10.6287888461       -1.5815231735
 C        -6.6451413916        3.2407369749       -0.4079348156
 C        -6.6584782110        3.6233131609        2.0521319922
 H        -3.4213198910        4.4640794129        1.4262532848
 H        -3.2179611865        4.7765706739       -0.2812311001
 H        -4.0600415981        3.4069958431        0.4374946113
 H        -6.9886660578        7.1212862206        0.5007178286
 H        -7.6249532214        6.7793767042        2.0401994727
 H        -9.2409958742        8.5687716937        1.3910174640
 H        -9.9280569552        7.0149305570        0.7768742742
 H       -11.3670673249        9.5764084350       -3.7397692923
 H       -12.2440925574        7.9730725421       -4.0537483993
 H        -9.7134255915        7.2447057683       -3.7922136542
 H        -9.7111109842        8.8352717892       -4.9138409820
 H       -11.8401593995        3.7212960796       -7.1424395906
 H       -12.4076023580        5.0785017017       -6.2231655740
 H       -11.6380146510        2.3982678448       -5.2049409353
 H       -13.4373715971        2.9136127977       -5.3088845093
 H       -11.2263598373        0.6177865170       -1.5899536418
 H       -12.8371715258        0.5434765448       -1.0405185288
 H       -10.8817605934        1.6035739163        1.1166251003
 H       -10.2162500083        0.1893856617        0.4841849009
 H        -9.7084420973       -1.6621594536        3.5400226795
 H       -10.7611554738       -1.3768986366        5.0310014479
 H        -9.2864308111        0.5475419790        5.5548848546
 H        -8.2513335571        0.1414557045        4.2961200852
 H        -6.2345199171       -3.7645063593        4.7288167766
 H        -7.1839818957       -5.1595598523        4.1936550698
 H        -6.6833796386       -5.0367180864        5.8039495506
 H        -7.8634072126       -4.1405167332        7.9580716704
 H        -7.9310337236       -2.7124298363        8.7010219585
 H        -6.4737627396       -3.0537438608        7.7156349899
 H       -10.1068882635       -1.6559844303        7.6042049051
 H       -10.0016208805       -3.3542579636        7.8208258912
 H       -10.6994844288       -2.7185214364        6.1784738973
 H       -12.7933908036        1.1872576812        4.3676508648
 H       -14.1173386726        0.4170204378        3.4222355511
 H       -12.8943051239        1.8009112087        2.7446729013
 H       -13.2170744996       -1.4737761662        4.4313904008
 H       -12.0026556363       -2.3645644829        3.4440701094
 H       -13.7269535499       -1.7721745691        2.8297501965
 H       -13.6491509216        4.7420255777       -1.5848060700
 H       -14.7177555691        3.3182883579       -1.2065071861
 H       -14.7719437352        4.0700486339       -2.7965960587
 H       -14.5110781390        1.3169510913       -2.5077451881
 H       -13.0947225648        0.7671075352       -3.2938988400
 H       -13.8959528833        1.8893457474       -4.2161422549
 H       -11.3107592742        6.0396237091       -7.9445578388
 H        -9.8284881339        5.3668583101       -8.5089320578
 H       -10.0732005976        7.0387385008       -8.7066589392
 H        -7.7941288087        6.9310710262       -7.1701886090
 H        -7.8703096605        5.3360885970       -6.1792941069
 H        -8.1788345179        6.7780289823       -5.4029030616
 H       -11.5059430493        8.5074847068        0.6428014587
 H       -12.3018998403        9.9572911734       -0.0407900212
 H       -10.7937413283       10.1624709055        0.7605409755
 H        -9.5059130723       11.0896927560       -0.7595616884
 H       -10.7618578087       11.4091984997       -1.9602558697
 H        -9.2405773508       10.5266765671       -2.4302991904
 H        -6.2986204197        2.2353095457        0.0823203881
 H        -6.2531110082        3.5633093111       -1.3409820664
 H        -7.7112213258        2.9879908213       -0.5947605606
 H        -7.2373238866        2.6713766901        1.8737125016
 H        -7.1413029939        4.2667119280        2.7211784251
 H        -5.6802023519        3.4073845550        2.4625591688
 Na      -10.7435198943        5.3275639491       -1.3350021724
