117

 C        -3.9098333559        4.3691265506        0.4494211902
 C        -5.3098763099        5.0187958803        0.3331368933
 O        -5.3070288266        6.2199634281        0.2019443746
 C        -6.6168740883        4.2350555331        0.5425545282
 C        -7.8493932801        5.1709205049        0.3370716558
 O        -8.7214849477        4.7788844570       -0.4650485626
 C        -8.0259642969        6.6520959667        0.8718284694
 C        -9.1653294124        7.4998926329        0.8034186668
 C        -9.1489262878        8.3958134371       -0.6004697930
 O        -8.2157070015        8.3502732562       -1.3729704282
 C       -10.3927215649        9.2278002560       -1.0754793661
 C       -11.1621054062        8.3538707155       -2.1734631706
 O       -11.7251548862        7.3095615854       -1.7776709693
 C       -11.3729676351        8.5838207752       -3.6715682201
 C       -10.2032944608        7.7837989011       -4.4504081395
 C       -10.6973867241        7.1566443172       -5.7869880748
 O       -11.8376989449        7.3742470589       -6.0800452582
 C        -9.8560721869        6.0070699750       -6.5346435025
 C       -10.3105873834        4.5916008606       -6.0695504361
 O        -9.5335215078        3.7733626432       -5.6450384927
 C       -11.6573132472        4.1093035344       -6.2319185799
 C       -12.2689057367        3.2371391982       -5.1062437498
 C       -12.2875991536        3.8246005238       -3.6836313574
 O       -11.7487094034        4.8760390183       -3.4065132270
 C       -13.1154692663        2.9921400081       -2.4551435517
 C       -11.9733884394        2.5551549512       -1.3234170534
 O       -11.4109092235        3.4680793870       -0.6877338558
 C       -11.7641999947        1.0551163286       -1.0593702593
 C       -11.2393617697        0.9069605683        0.4046251388
 C       -12.3620578548       -0.0121690670        1.2792570718
 O       -13.2384654439       -0.5916769038        0.6923948954
 C       -12.1425032214       -0.1227170370        2.8553934926
 C       -10.7171510476        0.0413162930        3.3609823183
 O       -10.2840389229        1.2596869846        3.3908803568
 C       -10.0282969779       -0.9422589099        4.2734320984
 C        -8.7681263841       -0.3972266181        4.9316889278
 C        -8.0259252091       -1.2923667982        6.0145476495
 O        -6.9136997094       -0.9182193942        6.2075338888
 C        -8.5804905287       -2.7389800803        6.6074323224
 C        -8.5330229984       -3.6728608599        5.3495375105
 O        -9.4323916280       -3.8090875291        4.5834063311
 C        -7.0688261326       -4.1606133424        4.9910896021
 C        -7.6140993574       -3.0780469389        7.6887838758
 C       -10.0370048368       -2.4605341284        7.1106857426
 C       -12.9547620244        1.0609688971        3.5055227089
 C       -12.6782476872       -1.5066566750        3.3420760515
 C       -14.1855274158        4.0059075989       -1.8103427565
 C       -13.8917060540        1.7039324092       -2.9637169331
 C       -10.2772736341        6.1018979143       -8.0191391964
 C        -8.1927750386        6.3406757532       -6.3312914095
 C       -11.3987642473        9.5021633224        0.1530170752
 C        -9.9312450709       10.5058608820       -1.7396224138
 C        -6.5628029285        3.0347084582       -0.5389470570
 C        -6.4764495270        3.7521409199        2.0569026540
 H        -3.5794330700        4.4358777091        1.4391271101
 H        -3.2450604145        4.9842956057       -0.1566917412
 H        -3.7779195978        3.3423537244        0.2924382179
 H        -7.2557622956        7.2024539976        0.3461323812
 H        -7.7167933320        6.8013705817        1.9267420897
 H        -9.2014011852        8.2523079433        1.6311734079
 H       -10.1239428398        6.8476544239        0.8654523850
 H       -11.2942156172        9.5912707240       -4.0987036315
 H       -12.2669043578        8.0854201273       -3.9468628069
 H        -9.7246749738        7.0547433040       -3.6730963247
 H        -9.6347747574        8.6725589751       -4.8205104533
 H       -11.7064958741        3.5040723879       -7.2425227307
 H       -12.2842794736        4.9797752499       -6.3752116115
 H       -11.6549778478        2.3287594481       -5.1400481256
 H       -13.3532923846        2.9647809077       -5.3653226150
 H       -10.8857045979        0.7468255412       -1.6171369973
 H       -12.5989479313        0.4814335946       -1.3945771057
 H       -10.9960371339        1.7839835860        0.9054731169
 H       -10.2585391001        0.3558975704        0.4582617138
 H        -9.7095461451       -1.6853325615        3.5350887843
 H       -10.6538607819       -1.2562761815        5.0765533727
 H        -9.1239339010        0.4856356419        5.4146777256
 H        -8.0047041484       -0.0066175299        4.1306734068
 H        -6.3462086385       -3.3435111453        4.8143309488
 H        -7.0483105426       -4.8773091196        4.1610307718
 H        -6.5994182752       -4.6954573712        5.7581143927
 H        -7.6591894537       -4.1573322178        8.0973079502
 H        -7.8617559838       -2.6167609941        8.6344542158
 H        -6.5537598853       -2.8657846112        7.3693265568
 H       -10.2654564771       -1.3182730345        7.0362066664
 H       -10.0795362625       -2.6730410025        8.2297499076
 H       -10.7368771358       -3.1058070157        6.5448366809
 H       -12.6107992642        1.1210441210        4.6006976230
 H       -14.0176747824        0.7332798942        3.5277623411
 H       -12.4952841077        1.9702889709        3.1051295476
 H       -12.8358298368       -1.7041952042        4.4169609406
 H       -12.0480647899       -2.3861533328        2.9951245080
 H       -13.7751870215       -1.6022523467        2.9997994838
 H       -13.7546348968        4.9027218586       -1.2939553344
 H       -14.9650262838        3.4365322478       -1.2067367171
 H       -14.6978620581        4.3955466650       -2.6569171978
 H       -14.3255026781        1.1398049806       -2.0901386157
 H       -13.2300059937        0.8962242732       -3.4424461874
 H       -14.4582447441        1.9221857540       -3.8446654447
 H       -11.3567246650        6.0532531460       -8.0082898374
 H        -9.9412389226        5.3588749103       -8.7292566018
 H       -10.0410781612        7.0195201696       -8.5542006059
 H        -7.9706952196        7.1367196719       -7.0629938987
 H        -7.6336388278        5.3995900631       -6.5250068016
 H        -8.0719706424        6.5820451069       -5.2552651170
 H       -12.0232873896        8.6324455265        0.4254527183
 H       -12.0087275611       10.3146438746       -0.0887131861
 H       -10.8921837775        9.9443571492        1.0526020312
 H        -9.4726400617       11.2531489383       -1.1682469792
 H       -10.8421967464       10.9589513981       -2.1933573681
 H        -9.3070328454       10.3012994067       -2.6245741072
 H        -6.1529172796        2.0714815838       -0.1930766405
 H        -6.1323611989        3.5508299022       -1.3025960562
 H        -7.5811778166        2.7542509796       -0.9905090007
 H        -6.7223224381        2.7147446158        2.2557289686
 H        -7.0508433863        4.5093433226        2.5565366638
 H        -5.4645954903        4.0138922860        2.4499860581
 Na      -10.6455789347        5.4398407353       -1.3099429287
