117

 C        -3.9383137680        4.0092121868        0.0449541588
 C        -5.2827042875        4.8153139381        0.2505927204
 O        -5.2161631238        6.0110877506        0.0924125237
 C        -6.7417504883        4.1409431978        0.4495527086
 C        -7.9166917264        5.0404084129        0.0080383186
 O        -8.7026895133        4.7278587040       -0.9582846669
 C        -8.2724952532        6.2791082687        0.9044532866
 C        -9.3913639037        7.1342389004        0.5032936321
 C        -9.1924541477        8.0659945408       -0.8386873761
 O        -8.0814425258        7.9688269929       -1.3639834317
 C       -10.1902227845        9.2387176110       -1.2056417283
 C       -10.9610314884        8.5191172940       -2.4091412322
 O       -11.8937340934        7.7304835674       -2.1042582927
 C       -10.5116129803        8.6062968337       -3.8213224461
 C       -10.0831014220        7.0611481737       -4.3283806503
 C       -10.4749558316        6.7025177165       -5.7392513183
 O       -11.3597139374        7.3344376267       -6.2480792048
 C        -9.8123983830        5.6572584798       -6.5945292478
 C       -10.4859922708        4.2605114768       -6.0243633663
 O        -9.7700371358        3.4937772135       -5.5396827196
 C       -12.0588727182        4.0859805696       -6.0091601309
 C       -12.4480004357        3.0836431703       -4.8791763555
 C       -12.2214716349        3.6946315926       -3.5465847577
 O       -11.2744325863        4.4112513223       -3.4321686509
 C       -13.1578555033        3.3708419164       -2.2574236341
 C       -12.1329638599        3.0344828717       -1.0208360701
 O       -11.7000341915        3.9598994474       -0.3562726110
 C       -11.7954969705        1.6014277999       -0.7341962592
 C       -11.2632078711        1.4477906418        0.7267567042
 C       -12.0081188592        0.1853228138        1.3544990511
 O       -12.6311995576       -0.5728329913        0.6125397751
 C       -12.1000339329        0.0362001511        2.9552494132
 C       -10.7095877133        0.1836714252        3.3833100541
 O       -10.1367390552        1.2843840375        3.0065088861
 C        -9.8829679327       -0.9255779781        4.0795285645
 C        -8.7866857281       -0.2876933100        5.0140634684
 C        -8.0234649202       -1.1953463000        6.1689903108
 O        -6.9740561410       -0.8178113357        6.6379753482
 C        -8.7379302150       -2.5295541531        6.6847435155
 C        -8.8367147761       -3.5034366824        5.5618667305
 O        -9.8659745648       -4.1085378595        5.3627676897
 C        -7.5165438743       -3.7633425798        4.7305505116
 C        -7.8808155893       -2.9778307974        7.9543523325
 C       -10.2294328124       -2.1263070495        7.1862662285
 C       -12.9465350580        1.2824607323        3.3068498378
 C       -12.7886565369       -1.3004707089        3.4645774978
 C       -13.9480074733        4.6488651731       -1.9749975407
 C       -14.1415045692        2.2693405548       -2.5180856957
 C       -10.2686366908        5.6930102460       -8.1334468427
 C        -8.2490595249        5.7212845274       -6.5080925167
 C       -11.2206049642        9.5713705122       -0.1242670530
 C        -9.2507697884       10.4303591442       -1.7626956779
 C        -6.6434388879        2.9005884170       -0.3321100961
 C        -6.7964457734        4.0068306500        2.0572669434
 H        -3.6386061878        3.2720316442        0.7229123638
 H        -3.2255296241        4.7537697586        0.0781248461
 H        -3.8741150413        3.5055152469       -0.9543542694
 H        -7.4416524129        6.9623530496        0.7897154786
 H        -8.3505519070        6.1194237328        1.9934114194
 H        -9.5576056183        7.9011362714        1.2927012736
 H       -10.3287176934        6.4464106973        0.4282971001
 H        -9.7517145104        9.3713258375       -4.1567416314
 H       -11.2840786313        8.8654433025       -4.4794884720
 H       -10.6607523871        6.3882167882       -3.5881016779
 H        -8.9519924074        7.0160502943       -4.1966450713
 H       -12.3752100762        3.6097237506       -6.9511610828
 H       -12.6836951975        5.0233741918       -5.9579568834
 H       -11.6830989351        2.2692951270       -4.7968201764
 H       -13.4436793911        2.5730006215       -5.1576295591
 H       -11.0874751577        1.3509027428       -1.5136766020
 H       -12.6373400502        0.9368424053       -0.7598518033
 H       -11.5547111971        2.2575238028        1.3065902197
 H       -10.1299621838        1.2624187022        0.8435149631
 H        -9.1881916577       -1.2071103332        3.3091833827
 H       -10.3542637263       -1.6568040826        4.6024825152
 H        -9.2095174417        0.4407367370        5.5895740777
 H        -8.0204101942        0.0466216487        4.2294141455
 H        -6.5738651146       -3.3609616477        4.9970278423
 H        -7.6802096215       -3.5678122522        3.6148041954
 H        -7.4303000366       -4.8166936892        4.6723065678
 H        -8.3290328435       -3.7980337369        8.5703382578
 H        -7.8456602532       -2.1042614850        8.5602391802
 H        -6.9257583910       -3.4330748943        7.7120094563
 H       -10.8707899113       -2.0319199715        6.2680539163
 H       -10.1122662634       -1.2155072920        7.7565710700
 H       -10.5191149993       -2.7357427517        7.9835275049
 H       -13.3596731321        1.1188846574        4.3083458488
 H       -13.6733370669        1.2618464471        2.4836793050
 H       -12.2947030545        2.2184324131        3.2368340299
 H       -13.0679365239       -1.2915695521        4.5712486771
 H       -12.1277168595       -2.2200264523        3.2054770342
 H       -13.6031676811       -1.6264183353        2.7232159723
 H       -13.3844244553        5.5054534860       -2.3165663327
 H       -14.1154151908        4.7474176333       -0.8361330079
 H       -14.8938147612        4.6204566387       -2.4297538471
 H       -14.9473733339        2.3413398445       -1.6816817117
 H       -13.5473832486        1.3283986422       -2.3603233045
 H       -14.8357517226        2.1185825125       -3.4317537891
 H       -11.3748997984        5.7536042526       -8.3785873925
 H        -9.8750418752        4.8289423810       -8.6464560855
 H       -10.0242111446        6.6143889853       -8.6791890941
 H        -7.9577992245        6.7167600538       -6.2460216176
 H        -8.0006482100        5.6389541393       -7.5152560974
 H        -7.8602363446        4.8837133719       -5.7989753676
 H       -11.6914969643        8.6245037505        0.2519180183
 H       -11.9564751455       10.3084197115       -0.3231420698
 H       -10.6920468314        9.9337974630        0.8072929504
 H        -8.7026145929       10.8791120812       -0.8521204377
 H        -9.8117006106       11.2524272383       -2.1707340116
 H        -8.3818694802       10.0589786752       -2.3351877429
 H        -5.8916203039        2.3806118224        0.1786950416
 H        -6.4060424891        3.1391026918       -1.4920585369
 H        -7.6153374179        2.3412060521       -0.2500240156
 H        -7.7922850984        3.8564138256        2.3787141507
 H        -6.1880927535        4.7457928525        2.6132760595
 H        -6.3691857240        3.0076559482        2.1070727676
 Na      -10.8010775376        5.4185380680       -1.5587522598
