117

 C        -4.2660326885        4.0186703280       -0.2229845523
 C        -5.5777072023        4.7416585576        0.0134002865
 O        -5.4832277786        5.9661028481        0.0443303992
 C        -6.9475582243        4.0508409606        0.4580845303
 C        -8.0710684185        5.1996782177        0.0313244865
 O        -8.5839742625        5.0010589266       -1.0437369310
 C        -8.1721824874        6.2138535308        1.0056079870
 C        -9.0688892787        7.4812551664        0.5518677749
 C        -8.7956636492        8.0235409859       -0.8665401924
 O        -7.9869564855        7.5344931517       -1.6520113304
 C        -9.9133188782        9.1211208206       -1.4229727152
 C       -10.6186259814        8.3571342324       -2.5221164315
 O       -11.4868414319        7.4998925049       -2.2516196445
 C       -10.0182195080        8.4045188102       -3.8370747246
 C        -9.4865571779        7.0394647607       -4.5364042239
 C       -10.3631931561        6.6493345527       -5.8480091199
 O       -11.0577449523        7.4475026460       -6.3764546248
 C        -9.9267269862        5.2844533265       -6.6351714874
 C       -10.5059610581        4.0582698038       -5.9227765455
 O        -9.7389246350        3.2640645091       -5.6121411093
 C       -12.0420354529        3.8552270318       -5.8786706084
 C       -12.8326183914        3.1533044432       -4.7283728133
 C       -12.2792847898        3.5507335907       -3.3379994334
 O       -11.0937328412        3.8785399239       -3.1981352750
 C       -13.4813447576        3.6165234155       -2.2397643965
 C       -12.4898593890        3.2323512853       -0.9325883915
 O       -12.1084442151        4.1044874723       -0.1955331110
 C       -11.9005153796        1.7879549198       -0.7622249204
 C       -11.1831760691        1.5037563813        0.5428954962
 C       -11.8805958968        0.2690663493        1.2751781987
 O       -12.2691124758       -0.6944330751        0.6097701858
 C       -11.9216917297        0.2364421126        2.8969399852
 C       -10.4373547909        0.4895542165        3.3333675769
 O       -10.0177326287        1.5509138548        3.1932191004
 C        -9.8579744504       -0.7117475917        4.2683996000
 C        -9.0133492786       -0.0437266569        5.4292315341
 C        -8.2414059133       -0.9904361215        6.2714942958
 O        -7.1092249411       -0.6827019117        6.5760903173
 C        -8.8615414870       -2.2996071935        6.8092868949
 C        -9.1694040745       -3.5032619693        5.7252141693
 O       -10.1293631425       -4.1892420558        5.8635913984
 C        -8.0150548061       -3.9000361876        4.7820186684
 C        -7.9560931136       -3.0270297566        7.8625196573
 C       -10.2553403981       -2.0425291520        7.4496946306
 C       -12.6655600785        1.4182736476        3.5280332901
 C       -12.5112760111       -1.2382065246        3.3674030897
 C       -13.8740460538        5.0194087998       -2.2671368994
 C       -14.5961496789        2.5557545319       -2.5889914056
 C       -10.5079301719        5.3912861957       -8.0925613321
 C        -8.3049831555        5.0605581492       -6.5978207481
 C       -10.9143811824        9.4414829893       -0.2884615261
 C        -9.1204983595       10.3601694936       -1.7920110525
 C        -7.3770888680        2.8133124211       -0.4028883450
 C        -6.7977104902        3.7052095386        2.0109282567
 H        -4.0611157620        2.9210815021       -0.0309894107
 H        -3.5437581588        4.5214165563        0.4704533185
 H        -3.9043916595        4.3411214334       -1.2547084752
 H        -7.1358350490        6.5319773268        1.0804183620
 H        -8.4728428548        5.9262894333        2.0581230256
 H        -8.7309130186        8.3041979258        1.1594446590
 H       -10.1047851944        7.3781177105        0.7141667765
 H        -9.2500045298        9.1283571076       -4.0746844474
 H       -10.7039367069        8.8464288288       -4.6232598723
 H        -9.1812704803        6.2897252441       -3.8491835907
 H        -8.6355430607        7.3746152379       -5.0435284935
 H       -12.3832247345        3.4112171903       -6.8018914398
 H       -12.3972701157        4.8096613147       -5.8969941304
 H       -12.8961946182        2.1556872918       -5.0112182708
 H       -13.8674569824        3.5345390645       -4.8151884183
 H       -11.2199365711        1.4443956809       -1.5570642248
 H       -12.8766745703        1.1892072796       -0.8516055714
 H       -11.5193114552        2.3670270372        1.1078943469
 H       -10.0765459988        1.4635939087        0.3239177225
 H        -9.1745975514       -1.3165701974        3.5809535574
 H       -10.5160397256       -1.3651793979        4.8377950536
 H        -9.7261320069        0.4799311880        6.0927132888
 H        -8.1634297702        0.4978576674        4.9065144136
 H        -7.0864411320       -4.3057097463        5.2212050937
 H        -7.6277774050       -2.9445647805        4.3401917339
 H        -8.3071896357       -4.4522723570        3.9286584502
 H        -8.3128062742       -4.0724581652        8.0468579162
 H        -7.9864486138       -2.4092503895        8.7080729823
 H        -6.8971633423       -3.2214241138        7.6461905767
 H       -10.9094469969       -2.5786339219        6.7521549234
 H       -10.4996823474       -1.0181202464        7.6347459259
 H       -10.2745589116       -2.4275207893        8.4106614698
 H       -12.4829711959        1.2303992596        4.5480791182
 H       -13.6313685566        1.2022122095        3.2783627837
 H       -12.3602407216        2.3350845388        3.1514092238
 H       -12.3017186040       -1.3415366175        4.3865452705
 H       -12.0323954433       -1.9974542423        2.7389323997
 H       -13.6192674572       -1.2974706221        3.1142871370
 H       -13.0192640435        5.5655392985       -1.8945079857
 H       -14.8077345160        5.3433316720       -1.7458902293
 H       -13.9841509628        5.2171191141       -3.2592299536
 H       -14.8079645459        1.8045450782       -1.8801362581
 H       -14.2028374341        2.0451999064       -3.3998169051
 H       -15.5852306691        2.8982562356       -2.6636303136
 H       -11.5772389846        5.6216934917       -8.0602390995
 H       -10.5709585566        4.4436705433       -8.5845422233
 H       -10.1373903275        6.2028375957       -8.7097139991
 H        -7.9466010036        5.7092831901       -7.3856060313
 H        -8.1580700001        4.0236901465       -6.8128031869
 H        -7.9432328769        5.3493572911       -5.5757600606
 H       -11.7312057608        8.7441381763       -0.2136716310
 H       -11.4743515333       10.2476536444       -0.6186417731
 H       -10.5525343407        9.6370683753        0.7410752397
 H        -8.8979779020       10.8730830866       -0.8018134596
 H        -9.7704179209       11.0596268245       -2.3349960855
 H        -8.1733204844       10.0409322824       -2.3092305899
 H        -6.7374826013        2.0357198036       -0.2546161727
 H        -7.2516519550        3.1483541480       -1.5420243715
 H        -8.4465015041        2.7418551173       -0.1468274945
 H        -7.7212276681        3.2759900223        2.4116298417
 H        -6.6794453121        4.6570957448        2.5394524881
 H        -5.9156559802        3.0167993798        2.0853523368
 Na      -10.5738111832        5.7936858220       -1.5751910994
