117

 C        -4.4818164408        3.7653675046       -0.5127814417
 C        -5.5958265616        4.6017232335       -0.0586911755
 O        -5.4513170958        5.7935891025       -0.0920911958
 C        -6.9591603300        4.0883022859        0.4183710261
 C        -8.0125190620        5.1693354349        0.1766120329
 O        -8.9318942389        5.0989717153       -0.6449593491
 C        -8.0106844946        6.4209553397        1.1018735981
 C        -8.7802596893        7.6470434912        0.7735564844
 C        -8.7378750703        7.9573922822       -0.8222579371
 O        -7.8951617063        7.5412721581       -1.5738404675
 C        -9.7942123959        9.1357817447       -1.5096134991
 C       -10.2948397059        8.3156777204       -2.7021470016
 O       -11.1847728171        7.4642130678       -2.6101773025
 C        -9.6927059378        8.3397598710       -4.0838281141
 C        -9.2145787979        6.9847592518       -4.7438386266
 C       -10.1244268436        6.5320984179       -5.9796659261
 O       -10.9962204839        7.2931880824       -6.3405301802
 C        -9.8282556152        5.1669528141       -6.6820825172
 C       -10.5948689845        3.9981846173       -5.8270683574
 O       -10.1160040883        2.9619147571       -5.3822337412
 C       -12.0610885954        4.0509901299       -5.9274122709
 C       -12.5774032015        3.0835965301       -4.8839554398
 C       -12.4243989176        3.6261110622       -3.4391639047
 O       -11.2855999180        3.9572964657       -3.1551783772
 C       -13.5003082874        3.6303284504       -2.2531843636
 C       -12.6623857789        3.3421256557       -0.9524121347
 O       -12.2330832050        4.2469191750       -0.2208703718
 C       -12.1934213289        1.8403575402       -0.7768450569
 C       -11.3746408168        1.8021534168        0.6366241094
 C       -11.8310083292        0.3779687873        1.2559162255
 O       -12.0286697865       -0.5962989483        0.6164201996
 C       -11.8915004719        0.2961161741        2.9074032653
 C       -10.3371486201        0.5546491474        3.4726108794
 O        -9.6890890973        1.6211813344        3.0759268908
 C        -9.5592855653       -0.4795238141        4.3251525155
 C        -9.1195578348        0.0162307763        5.7418948049
 C        -8.2216235078       -1.0938329357        6.4989926057
 O        -7.0232740164       -0.9543502763        6.4663258299
 C        -8.9598907305       -2.2926095767        7.1269609038
 C        -9.3233008685       -3.4371084148        5.8651959899
 O       -10.3799162343       -4.0337499839        5.8455765680
 C        -8.2250376188       -3.6810990434        4.8730749203
 C        -7.9342255350       -2.8882457687        8.0758578511
 C       -10.2911077247       -1.9476296440        7.8084842870
 C       -12.9778597871        1.4841554990        3.4760409012
 C       -12.5274453416       -1.0446675664        3.1136811793
 C       -13.8979573138        5.2596928472       -2.1213399311
 C       -14.8107453543        2.7373540071       -2.3420526231
 C       -10.4516218653        5.1539169729       -8.0651902946
 C        -8.2267876057        4.8937080393       -6.9666524206
 C       -10.9063348479        9.5855381011       -0.6412929807
 C        -8.8732749108       10.3243556592       -1.8633108878
 C        -7.2112705521        2.7528340968       -0.4961006391
 C        -7.0967574393        3.4846683902        1.8380751747
 H        -4.6443295536        2.7256384679       -0.5108406250
 H        -3.6634242445        3.7640847405        0.2062110219
 H        -4.1412784820        4.1460554266       -1.3947601488
 H        -7.0193956919        6.8125338256        1.4220081526
 H        -8.4535676625        6.1775687662        2.0287576791
 H        -8.3663809538        8.3918143665        1.5220179724
 H        -9.8988980495        7.6172867566        1.0317621110
 H        -8.9461364583        9.0721062525       -4.3453055333
 H       -10.4602808368        8.7497745135       -4.6818340444
 H        -9.3407148152        6.2653799685       -3.8350661280
 H        -8.1197271915        6.8981012956       -5.1478878499
 H       -12.2550412583        3.7839808846       -6.9998288435
 H       -12.4646234884        5.1036593422       -5.7132600293
 H       -11.9829888176        2.0815192705       -5.0011745938
 H       -13.6504122862        2.8632629665       -5.0173852384
 H       -11.6315449099        1.4207955201       -1.6188539010
 H       -13.0201904358        1.1839584754       -0.6333201067
 H       -11.5991658473        2.7515403310        1.1794022122
 H       -10.3451565917        1.6511200530        0.4352019841
 H        -8.6558010137       -0.6849922867        3.8443677618
 H       -10.1658739328       -1.4249337663        4.4088577625
 H        -9.9608553963        0.3306040792        6.3875015579
 H        -8.4657014678        0.7363102821        5.3830088430
 H        -7.9813985597       -4.7342535137        5.0828593224
 H        -7.2953760242       -3.2096283906        4.9340599197
 H        -8.5565621411       -3.6398314307        3.8072850033
 H        -8.2372616290       -3.8592649678        8.3339615009
 H        -7.5777095568       -2.2012958731        8.8782213218
 H        -6.9583963476       -2.9808218825        7.5792447070
 H       -11.1795389309       -2.1576866905        7.2136673674
 H       -10.1800052351       -0.8807900378        8.1068688056
 H       -10.3679501735       -2.5922839128        8.7766620671
 H       -13.1239695361        1.2629871238        4.5868674004
 H       -14.0143641730        1.3865254750        3.0083088487
 H       -12.5457743324        2.4338244621        3.1910808440
 H       -12.9647658944       -1.0442707198        4.1936984009
 H       -11.8294382876       -1.9461071951        3.0114292908
 H       -13.3558185131       -1.0941068422        2.3278413307
 H       -13.4864446598        5.7083890569       -1.2131718643
 H       -14.9198373162        5.3969498346       -2.0607586346
 H       -13.5222824520        5.7814101998       -3.0657827954
 H       -15.2815726480        2.4246055086       -1.3676561522
 H       -14.5852648361        1.7233786542       -2.8640733991
 H       -15.7265777789        3.2534725901       -2.7193309468
 H       -11.5010564429        5.3931271693       -8.2625618908
 H       -10.3839073997        4.1531014022       -8.5912191690
 H        -9.8901490189        5.9500449200       -8.6163887311
 H        -7.8719942116        5.7469845294       -7.6022747917
 H        -8.1405207330        3.8418206317       -7.3952678571
 H        -7.7391013727        4.9071630200       -6.0397182451
 H       -11.6045646867        8.7994628059       -0.4127121451
 H       -11.6640474843       10.2388129500       -1.1787571933
 H       -10.5771648197        9.9668670755        0.2881153740
 H        -8.5789239684       10.9082245967       -1.0487830446
 H        -9.4881107119       10.9727397464       -2.5906181011
 H        -8.0207261615        9.8658433328       -2.4135871822
 H        -6.1914997305        2.2552736494       -0.6164920776
 H        -7.3687171954        3.0634169027       -1.4178722817
 H        -8.0613889102        2.2192833051       -0.0638991657
 H        -7.7914264246        2.6502011480        1.8469830775
 H        -7.6580769662        4.1896041101        2.4263163608
 H        -6.1416953502        3.2865628575        2.2128200352
 Na      -10.7703703359        5.3088156204       -1.5309001522
