117

 C       -12.7177509461       -1.7939093490       -7.1691865831
 C       -11.4108265638       -2.3045019154       -6.4941477594
 O       -11.1518556326       -3.4754186897       -6.2993384014
 C       -10.5218298137       -1.2321199538       -6.0899018802
 C       -11.2758437116       -0.5663432878       -4.7192291827
 O       -11.8812142366        0.4757873474       -4.7957737187
 C       -11.0639936829       -1.3285748826       -3.4150702193
 C       -11.8029783320       -0.7494778175       -2.2340064725
 C       -11.5187974586       -1.6215245391       -0.9864749182
 O       -12.3525106109       -2.4757120943       -0.6812419627
 C       -10.3316679273       -1.2138079415       -0.0879550363
 C       -10.9316505435       -0.0885860709        0.7660561084
 O       -11.6176196096        0.7803473022        0.2756352600
 C       -10.7047823612       -0.1368755478        2.2580113515
 C       -11.7210153774        0.7940461647        2.9762941536
 C       -11.4789352445        2.3208787417        2.6798070525
 O       -10.5866640490        2.7958273398        2.0412418606
 C       -12.6102653860        3.2010816111        3.3986468767
 C       -12.1621004129        4.6770031751        3.4635594741
 O       -11.0172240838        4.9939514524        3.6134926941
 C       -13.3258849774        5.7383765300        3.3891278094
 C       -13.7184499224        6.1945228194        1.9545071096
 C       -12.5276240096        6.3497204714        1.0169450156
 O       -11.9572255252        5.3003668524        0.7583224190
 C       -12.1771374744        7.5790623451        0.1586962802
 C       -10.5927897041        7.6053870678       -0.0861855438
 O        -9.8857216433        6.8294119238        0.5028376212
 C       -10.0030535507        8.6682124044       -1.0847501083
 C        -8.3537644763        8.4853940478       -1.2173029536
 C        -7.4733122052        9.3564037253       -0.2372706339
 O        -8.0355354917       10.1764685353        0.5103185976
 C        -5.9108054193        9.2060000320       -0.2050261093
 C        -5.6075756882        7.8231246050        0.7031659549
 O        -5.6371749648        6.7500064144        0.1788306929
 C        -5.5002706657        7.9680385877        2.2565596999
 C        -5.2108772023        6.5378133583        2.7376448810
 C        -6.4168799091        5.5748048654        2.5072756263
 O        -7.5720618443        5.8948618479        2.7234236005
 C        -6.1086353276        4.0304746578        2.1410044002
 C        -6.7208236520        3.8284489827        0.6844423971
 O        -7.8570791998        4.0781232368        0.4295351455
 C        -5.7540239234        3.5557071264       -0.5302705924
 C        -4.6137083104        3.6974109594        2.1841544463
 C        -6.8948717712        3.2119129133        3.2738832635
 C        -5.2438403463        8.8975772022       -1.6429509041
 C        -5.2914507003       10.4870990590        0.4794835027
 C       -12.8196485642        7.4447304841       -1.2670188717
 C       -12.5363376337        8.8769129810        0.9091248958
 C       -13.9689701696        3.0256796408        2.7508731150
 C       -12.7454732656        2.8540919681        4.9448453350
 C        -9.8798835414       -2.4401218616        0.7871801137
 C        -9.0131304786       -0.6758250810       -0.8314727706
 C        -9.0521667113       -1.7741459456       -5.9229682823
 C       -10.3830352025       -0.0587335301       -7.1393517395
 H       -13.2256975739       -2.6941396237       -7.2109548104
 H       -12.5884185613       -1.3167492674       -8.1844439212
 H       -13.1458280599       -1.0770888042       -6.5251941829
 H        -9.9359817165       -1.2318889166       -3.2875305600
 H       -11.3695681628       -2.3341755454       -3.4205395885
 H       -12.9133319716       -0.7546641101       -2.3754270871
 H       -11.6717885290        0.3136886615       -2.0367465600
 H        -9.6639539384        0.1492902073        2.6192076774
 H       -10.8603564797       -1.2010811272        2.6115140043
 H       -11.7363158179        0.6698462487        4.0835176071
 H       -12.6949231178        0.5934849826        2.6080611631
 H       -12.9125546594        6.5524282652        3.9078799220
 H       -14.2443065922        5.3800762783        3.9756449487
 H       -14.4221486436        7.0406930366        1.9185127816
 H       -14.2776681953        5.3466025913        1.5890204903
 H       -10.1658364022        9.7124715242       -0.6712728704
 H       -10.4666643462        8.4579663254       -2.0977842019
 H        -8.1000394125        8.8175670352       -2.2731080722
 H        -7.9604559083        7.4345668977       -1.1425856341
 H        -6.3761237851        8.3730052403        2.6313521422
 H        -4.6902795129        8.5870790588        2.5894824904
 H        -5.1790910425        6.5527895500        3.8049859278
 H        -4.2557348633        6.1607396459        2.4088048064
 H        -4.7251459064        3.9375481036       -0.4561584226
 H        -6.0508917376        4.0546349623       -1.4436532540
 H        -5.7717993989        2.4810218839       -0.7338335090
 H        -4.1367310954        3.7711388036        3.1637443205
 H        -4.1746776142        4.4178642169        1.5164745851
 H        -4.4316236491        2.6824863912        1.7654137231
 H        -7.9190888660        3.4334697502        3.1262605795
 H        -6.6063975482        3.4713774098        4.2185933722
 H        -6.8931826084        2.1429501203        3.0096788893
 H        -5.4887540212        9.6832888362       -2.3325099986
 H        -5.5865479890        7.9253824624       -2.0289881226
 H        -4.1424939541        8.7179079796       -1.5294054119
 H        -4.3421623932       10.3471528322        1.0853910853
 H        -6.0651891557       10.8161350935        1.1832184421
 H        -5.1206555622       11.3156945213       -0.2544113196
 H       -13.9089267836        7.5577613476       -1.2631352661
 H       -12.5917042670        6.5060400649       -1.6784464495
 H       -12.4406009223        8.2735316083       -1.9093285713
 H       -11.8070981158        9.2181498633        1.7009021413
 H       -13.5415890867        8.7917613291        1.3091138275
 H       -12.5026313122        9.6157829827        0.1731776983
 H       -14.1000578790        3.4436994127        1.7819494972
 H       -14.7057880358        3.3932017476        3.4184403068
 H       -14.2479915720        1.9479451666        2.5641264694
 H       -13.3412809625        1.9267697916        5.0547907542
 H       -13.1715079828        3.6194456988        5.6612278651
 H       -11.7213367538        2.6584842509        5.3517895998
 H        -9.1688279181       -3.0366489996        0.1693601156
 H       -10.7258940181       -3.0807523235        1.0501466309
 H        -9.3656852315       -2.1593869856        1.7676370643
 H        -9.3327338973        0.0177269124       -1.5968618656
 H        -8.4695496074       -1.5033392227       -1.3100896743
 H        -8.4397956649       -0.0768657340       -0.1098218665
 H        -9.1626876137       -2.6957167012       -5.3036490762
 H        -8.4098468805       -1.0084458928       -5.5672614470
 H        -8.7992111038       -2.1556274068       -6.9148302475
 H       -11.3151232675        0.5657447713       -7.2000887071
 H       -10.2188122264       -0.4052938353       -8.1917914937
 H        -9.5404647736        0.6243759535       -6.9994399515
 Na       -9.5182921271        4.8294092702        1.7850697382
