117

 C        -4.8347575224        3.3102127699       -0.8507635015
 C        -5.6648491131        4.3710035357       -0.0558333272
 O        -5.3091792203        5.5304431969       -0.0330662142
 C        -7.1454239246        3.8494549867        0.3907227788
 C        -8.1724592535        5.1182467154        0.4455758227
 O        -9.2596065944        4.8943909330       -0.0112093335
 C        -7.7541590778        6.4376472102        0.9662736995
 C        -8.4165809545        7.7819194275        0.4224711265
 C        -8.0413898938        8.0190272869       -1.0606063841
 O        -7.1705608699        7.5402517456       -1.7340610140
 C        -9.1358515588        8.9056085085       -2.0756056168
 C        -9.4093510578        7.7653779955       -3.1972064406
 O       -10.4080671999        7.0449610533       -3.0119465808
 C        -8.6273384794        7.7658915801       -4.6146958412
 C        -8.5716116986        6.4600670073       -5.5116176672
 C        -9.8112355841        6.0161013308       -6.1511528255
 O       -10.7842157983        6.7342099472       -6.0118683072
 C        -9.8144256837        4.6873555730       -6.7984830026
 C       -10.6873494163        3.8039061598       -5.8894922267
 O       -10.1070034161        2.9339701186       -5.2863819162
 C       -12.1820036786        4.2097787998       -5.8870154657
 C       -13.0051722440        3.6628432385       -4.8239487438
 C       -12.6570391796        4.0756145055       -3.4324337722
 O       -11.5303592120        4.4705487476       -3.2108692135
 C       -13.7775664587        3.8394612750       -2.2491854427
 C       -13.2451289793        3.6180369761       -0.7999042520
 O       -12.6545818749        4.5500963717       -0.2700867638
 C       -13.3153582316        2.2212762584       -0.1060048467
 C       -12.0411171892        2.0473540478        0.7552171306
 C       -11.7530412903        0.6851512824        1.5072271828
 O       -11.4048974977       -0.2318185785        0.7219191095
 C       -11.7634216422        0.5318926543        2.9601348694
 C       -10.2597466822        0.8003189831        3.4147959197
 O        -9.7546377176        1.8040778478        3.1477458918
 C        -9.4599589381       -0.2431807111        4.0972119093
 C        -9.5800631449       -0.1721173739        5.6239611898
 C        -8.5527731635       -0.9951516254        6.3889762974
 O        -7.3312619904       -0.7674141840        6.3111085140
 C        -9.0777067817       -2.1749729824        7.4212793966
 C        -9.7193527566       -3.1486015253        6.4244278443
 O       -10.8227011204       -2.8400522749        5.9567753171
 C        -8.9229437506       -4.2614217389        5.8170366061
 C        -7.9361796554       -2.8027906371        8.1979136740
 C       -10.2295070246       -1.5329383004        8.3173058012
 C       -12.6315228354        1.5919473338        3.8247756822
 C       -12.0694597899       -0.9964250267        3.3581029377
 C       -14.6573176687        5.0917180682       -2.2284284240
 C       -14.6130169813        2.6891116126       -2.6562009198
 C       -10.4186901564        4.9377552472       -8.2348905243
 C        -8.4160674397        3.9004364169       -6.9313241486
 C       -10.4423212454        9.1943827242       -1.3404811730
 C        -8.3189341662       10.1385656480       -2.5771699995
 C        -7.5129181292        2.7397885095       -0.7303587491
 C        -7.1898500331        3.2600991803        1.8708583963
 H        -4.5924609279        2.4572783416       -0.2628677187
 H        -3.9183985660        3.7082180924       -1.2157958884
 H        -5.3686309411        3.1026219750       -1.7836952001
 H        -6.6758176733        6.5547529941        1.0114421944
 H        -8.0427890631        6.3257260191        2.0841040167
 H        -8.0706129122        8.6736169609        0.9556358385
 H        -9.5325585149        7.8411731762        0.5268741097
 H        -7.5049033819        7.9098345168       -4.6290040358
 H        -9.0222512725        8.6277909169       -5.1549663742
 H        -8.3275520936        5.6078816153       -4.9457744609
 H        -7.8045155129        6.4973917558       -6.2527325039
 H       -12.7995168477        3.8456406743       -6.6807850819
 H       -12.1524708408        5.3570737389       -5.9415378067
 H       -12.8891348099        2.5951868624       -4.8124893619
 H       -14.1084179703        3.7987151568       -5.1175569273
 H       -13.4584034032        1.4139645657       -0.7799180737
 H       -14.1134689202        2.1027816555        0.5995553676
 H       -11.9467924007        2.8047888186        1.4144733845
 H       -11.1950907691        2.2810152870        0.0267540367
 H        -8.3526817340       -0.0755297472        3.8811602576
 H        -9.6285738252       -1.2510071508        3.9310036252
 H       -10.5872361313       -0.4587521026        5.7482446035
 H        -9.6491960761        0.8861857007        6.0744248646
 H        -9.1536235831       -4.0970248060        4.8210909691
 H        -9.1617364596       -5.3270463350        6.1061547041
 H        -7.8352427429       -4.1221804406        5.8014331325
 H        -8.1666226438       -3.8202597793        8.6060041695
 H        -7.7840371933       -2.2188392948        9.1629638196
 H        -7.0218739601       -2.6886812555        7.5210198255
 H        -9.9923020594       -0.5157711479        8.7657836305
 H       -10.3244952914       -2.0328794247        9.2739817329
 H       -11.1240788216       -1.5192985702        7.6601513258
 H       -12.1275950566        1.4687463224        4.8186097690
 H       -13.7643346021        1.3299417924        3.9245060403
 H       -12.2913201869        2.6700799941        3.6083087927
 H       -11.9631258276       -0.8761086453        4.4592760026
 H       -11.2967186987       -1.7026568487        3.1001502361
 H       -13.0769206479       -1.1945485051        3.1831667792
 H       -15.7356985814        4.8898922220       -2.2490154876
 H       -14.4466547332        5.6773979758       -3.1522588414
 H       -14.4402826056        5.7485473618       -1.3372434158
 H       -15.0751462751        2.0978995396       -1.8912031014
 H       -13.9863366669        1.9716644715       -3.1474640150
 H       -15.2418929389        2.8621096053       -3.5331815877
 H       -11.4802830627        5.3485955878       -8.1072782761
 H       -10.4314183846        4.0844634109       -8.8396466935
 H        -9.8130358980        5.5919688003       -8.8426269676
 H        -7.6838036432        4.5408650782       -7.4834755430
 H        -8.5929141361        3.1091654819       -7.6538058306
 H        -8.0547738411        3.5479493917       -5.9105874288
 H       -11.0295478728        8.2510231018       -1.2408954240
 H       -10.9998577230        9.8726916157       -1.9332480092
 H       -10.4621678366        9.7658035148       -0.3944188252
 H        -8.2494040860       10.7501018094       -1.6819568433
 H        -8.9130497707       10.5128021077       -3.3485539704
 H        -7.4172702544        9.8483925204       -2.9782413245
 H        -8.6963265951        2.7699682883       -0.6398474766
 H        -7.0770205338        1.9062481020       -0.3698415532
 H        -7.3044738094        2.9256455034       -1.7489090765
 H        -8.1927265928        2.9300357775        1.9535065837
 H        -6.9200980690        4.1102529445        2.5440775745
 H        -6.5527873031        2.4243270876        2.1402128345
 Na      -11.0261779468        5.9341876046       -0.8226776958
