117

 C        -4.7945654194        3.2393679247       -0.8532065182
 C        -5.7302937596        4.2275035431       -0.1603646421
 O        -5.3484596910        5.3228283607        0.1420018493
 C        -7.2262523106        3.8216232014        0.3247386938
 C        -8.0545995439        5.1045404855        0.2053934951
 O        -9.1998571411        5.1175316254       -0.2984941083
 C        -7.7065299649        6.4841675596        0.8583606497
 C        -8.4052256912        7.6158159652        0.1264210207
 C        -7.9213634216        7.8278834511       -1.3058786783
 O        -6.8327470705        7.3957394698       -1.6910842940
 C        -8.9244671266        8.7434231449       -2.1389582699
 C        -9.1927760255        7.6074939647       -3.3084622788
 O        -9.8274227745        6.6394584897       -3.0608319952
 C        -8.3886366590        7.8102774172       -4.5528430694
 C        -8.2758036661        6.3994459875       -5.3242805740
 C        -9.4607804379        6.0049769812       -6.1135928288
 O       -10.4396676432        6.7341390897       -6.0524985495
 C        -9.7508663364        4.5705378359       -6.7978895287
 C       -10.8037332988        3.8005752361       -5.8309883634
 O       -10.5463706204        2.7721794366       -5.1654376211
 C       -12.2106088602        4.4526462205       -5.6321898516
 C       -12.9436644641        3.4998641487       -4.5421200059
 C       -12.8564566952        4.0156254475       -3.1114931837
 O       -12.0206699939        4.8295223994       -2.8998220165
 C       -13.9334467265        3.6291653501       -2.1192125637
 C       -13.2759864106        3.6026453225       -0.7598565773
 O       -12.6922282251        4.6036022577       -0.3552493820
 C       -13.3001286676        2.2746395778        0.0359684678
 C       -12.1438398496        2.2606496217        1.0318907574
 C       -11.7746230864        0.9231804658        1.4417728383
 O       -11.5645110962        0.0901582739        0.5688964882
 C       -11.7707458545        0.5398684783        2.9662083316
 C       -10.1817703760        1.0181656143        3.4242784594
 O        -9.8021310740        2.1265297857        2.9630969475
 C        -9.2211468444        0.0372632505        4.0821422251
 C        -9.6133746254       -0.0727458086        5.5885012978
 C        -8.4856291051       -0.8954480100        6.3770166386
 O        -7.3567281322       -0.5092961973        6.3530825659
 C        -9.0948785120       -2.0974510399        7.4132347453
 C        -9.9248564953       -3.1537592434        6.5277052318
 O       -10.9228584230       -2.8015975391        5.9201147219
 C        -9.4215784394       -4.5299336035        6.2859610080
 C        -7.9841623137       -2.7975579058        8.2268080085
 C       -10.0477791914       -1.4254780848        8.4117705152
 C       -12.6685785821        1.4683909434        3.7219962387
 C       -12.2886497372       -0.8505975853        3.3559816765
 C       -14.8403129117        4.9499970058       -2.2772919426
 C       -14.7275170742        2.3663670150       -2.5171696322
 C       -10.4692145050        4.8103826338       -8.2005020413
 C        -8.4107331528        3.7658463500       -7.0878367457
 C       -10.2418127414        9.3496410801       -1.5088666355
 C        -8.2276860395       10.0392987822       -2.7728765624
 C        -7.9426783686        2.6422198158       -0.4501894220
 C        -6.9820245911        3.3602894069        1.8076032448
 H        -4.8139823797        2.1977341604       -0.3537110150
 H        -3.7505365490        3.6071110719       -0.8091146964
 H        -5.0249753010        3.1734784564       -1.9684975140
 H        -6.6348280207        6.7058734800        0.6655269833
 H        -7.8118363199        6.5992907563        1.8977886608
 H        -8.1889125056        8.5145814723        0.7097498372
 H        -9.4459481854        7.5783024781        0.0966117224
 H        -7.3663119120        7.9811362195       -4.4340842666
 H        -8.7730261216        8.7095518708       -5.1242513275
 H        -8.2987506908        5.5933440358       -4.5047267073
 H        -7.3751183256        6.2360296170       -5.9357836336
 H       -12.8138862511        4.3019886345       -6.5452861498
 H       -12.1804028133        5.4448461089       -5.3962687950
 H       -12.5200766494        2.4527415935       -4.4324416326
 H       -13.9553931620        3.3594976000       -4.8285478640
 H       -13.1363728301        1.3892844086       -0.6621089308
 H       -14.2882798493        2.0076412050        0.5313554923
 H       -12.2796852476        3.0123823170        1.9125701590
 H       -11.3604955654        2.7935390554        0.5356098940
 H        -8.1603005078        0.1152905291        4.1027585572
 H        -9.4455624323       -1.0015727850        3.6033289224
 H       -10.6307720842       -0.5459605392        5.5697336898
 H        -9.9105360286        0.8724902274        6.0035481193
 H        -9.0820672705       -4.8191518697        5.2466500677
 H       -10.2695766813       -5.1352825898        6.5670299252
 H        -8.6429262961       -4.7740319331        6.9608799475
 H        -8.3984205430       -3.5416322956        8.9184661385
 H        -7.6263711174       -2.0952529114        8.9551876120
 H        -7.2274286282       -3.2040852007        7.5599275011
 H        -9.4427180535       -1.1726841691        9.2563952977
 H       -10.7807934857       -2.1480845906        8.8771018923
 H       -10.5790224421       -0.5861705063        8.0490804114
 H       -12.7450274926        1.1615905097        4.7314543635
 H       -13.6062032143        1.3452214564        3.2433038174
 H       -12.3617302466        2.4776453802        3.7418162591
 H       -11.9819915589       -1.1255081995        4.3892944848
 H       -11.7285539728       -1.5168682643        2.6660474571
 H       -13.3790235169       -0.8185147563        3.0421676786
 H       -15.7347596455        4.8237878792       -1.6410041019
 H       -15.1574900682        5.1254522099       -3.3205496683
 H       -14.3142299219        5.7508993038       -1.8778141517
 H       -15.5991445750        2.4471636753       -1.8767667509
 H       -14.2806577701        1.3898301225       -2.4269120332
 H       -15.0221435597        2.3432935191       -3.5649734626
 H       -11.1331871718        5.6200195551       -8.1131379812
 H       -10.9707157295        3.8602644963       -8.5373449972
 H        -9.7933958147        5.0752280184       -9.0175146224
 H        -7.7405888972        4.3241905189       -7.6871654850
 H        -8.6025314181        2.9217567372       -7.7459355188
 H        -7.9187241937        3.4406503303       -6.1108589983
 H       -10.7407723361        8.7377766958       -0.8006771651
 H       -10.9753385261        9.7932594594       -2.2170460013
 H        -9.9699047241       10.2657158296       -1.0149256157
 H        -8.0158339738       10.6782359010       -1.8600378719
 H        -8.9080922809       10.4458628288       -3.5509038911
 H        -7.3110634646        9.6032860322       -3.2545066845
 H        -8.8142886957        2.3744471016        0.0270185432
 H        -7.1578082805        1.8224050236       -0.8438624264
 H        -8.1932960425        3.2652307886       -1.3366727927
 H        -7.5987601546        2.4717163685        2.1042793677
 H        -6.9441989756        4.2202238378        2.4094402133
 H        -5.9260095060        3.0193452445        1.8994772745
 Na      -11.0736280599        5.9840494808       -1.2886498974
