117

 C        -5.1186687808        2.8978915682       -0.9344191704
 C        -5.6705286134        4.1209154810       -0.2466002909
 O        -5.0182203875        5.0521300267        0.1629422241
 C        -7.1397518823        3.9449569287        0.2759256830
 C        -8.1453886702        5.1395493273        0.0682594220
 O        -9.1606843191        5.0065564786       -0.5739919203
 C        -7.7187062391        6.4340734196        0.7570105767
 C        -8.4753073977        7.7008407148        0.2116851980
 C        -7.8910476914        7.9314598717       -1.3075479173
 O        -6.7817512633        7.5459712090       -1.5745428107
 C        -8.6396591963        8.6852076305       -2.3727262486
 C        -8.7708066117        7.5156866221       -3.4357210097
 O        -9.5718502430        6.6095813387       -3.1381024231
 C        -7.9664024715        7.5076441418       -4.7193179642
 C        -8.0322861211        6.1792093182       -5.3634945539
 C        -9.5167453412        5.9669969901       -6.0747811574
 O       -10.1140803252        6.9918884126       -6.1957229883
 C        -9.8466257199        4.5480675695       -6.7197088788
 C       -10.7377571934        3.6651658360       -5.7966157726
 O       -10.3577508070        2.6393309402       -5.3693060449
 C       -12.1272646620        4.2503025772       -5.5486122056
 C       -13.1112574207        3.4744591862       -4.7207289867
 C       -13.1548916653        3.9793654762       -3.2606990385
 O       -12.4056692881        4.8957298522       -3.0201948858
 C       -14.2455875743        3.6823084046       -2.1618793155
 C       -13.2791818129        3.7338342519       -0.6866721951
 O       -12.9245006950        4.8268267941       -0.2999785224
 C       -13.1923913783        2.4134604371        0.0640249501
 C       -12.0697123107        2.5263465225        1.0943097118
 C       -11.8768790794        1.0522476839        1.6021682239
 O       -11.7486221592        0.2237844935        0.7457670828
 C       -11.7291553157        0.5935028809        3.0705673987
 C       -10.2485123909        1.1061728939        3.4320549027
 O        -9.9885379254        2.1378317103        2.9505212176
 C        -9.1402249566        0.2325206446        4.2324324028
 C        -9.6622673711       -0.0160964940        5.6536682681
 C        -8.6434045366       -0.8316952393        6.3847398867
 O        -7.4541065223       -0.6463769162        6.3730163490
 C        -9.1548752211       -2.0709781365        7.4123706231
 C        -9.9970527277       -3.0231570660        6.5551869585
 O       -10.9803802290       -2.6387994448        5.9469588631
 C        -9.8784124147       -4.5193575686        6.8502110995
 C        -7.8163445688       -2.6701352611        7.9614444772
 C       -10.0758815053       -1.3937355772        8.4193322768
 C       -12.6459734072        1.4283366418        4.0936997389
 C       -11.9444721034       -0.9008837999        3.0926385194
 C       -15.4197351537        4.7772027332       -2.0636116572
 C       -14.9642182896        2.2746131734       -2.2890788142
 C       -10.5237883064        4.7679945916       -8.0158583380
 C        -8.5771494453        3.7451931793       -6.8008817871
 C       -10.0655998288        9.0959672480       -1.8175267715
 C        -7.7725767821        9.8680861070       -2.9728373993
 C        -7.7724629111        2.6330223443       -0.2965907795
 C        -6.9951641279        3.6679959570        1.8033119619
 H        -5.5463536389        2.0387255986       -0.4974064541
 H        -4.0261705483        2.8737812143       -0.8595751976
 H        -5.3961637058        2.8763130380       -1.9368345319
 H        -6.6692740715        6.5256666774        0.8820003854
 H        -8.1201028266        6.3247234164        1.8041272715
 H        -8.0259398693        8.5716813783        0.7519248779
 H        -9.6106981411        7.7408914014        0.4520810911
 H        -6.8471255263        7.6600924880       -4.5553003463
 H        -8.2873380937        8.2026449598       -5.4176102519
 H        -7.8550204691        5.4370496182       -4.6172501722
 H        -7.3307502477        6.0549156556       -6.2277647247
 H       -12.4914645762        4.4003091934       -6.5763853607
 H       -12.0024932254        5.3165946258       -5.0388165868
 H       -12.7093167587        2.4740554988       -4.5866974220
 H       -14.2296857484        3.3687176209       -4.9567238927
 H       -13.0394177582        1.6337130193       -0.6376351116
 H       -14.1488357301        2.1722227701        0.4926360108
 H       -12.2406269027        3.4341404398        1.6080372302
 H       -11.1517094742        2.7849110534        0.5360465526
 H        -8.1752903115        0.7360297266        4.3749232160
 H        -8.8609285327       -0.6667815928        3.7738339828
 H       -10.6299270235       -0.5352617296        5.6121356484
 H       -10.0405062407        0.8844325952        6.0881741018
 H        -9.1380252929       -4.9112233998        6.1787751632
 H       -10.7938764448       -5.0176266719        6.5714808935
 H        -9.5454378221       -4.7930057403        7.9029510113
 H        -8.0285118568       -3.1086353818        8.9022430772
 H        -7.2302815760       -1.7544598524        8.1798415161
 H        -7.4629836329       -3.4313025107        7.2952387928
 H        -9.4772224163       -0.9185916048        9.2349672074
 H       -10.8874154891       -1.9759073556        8.8129539556
 H       -10.6643062244       -0.5728989074        7.9011780387
 H       -13.2597893341        0.7465769134        4.7656094095
 H       -13.3075680961        2.1331409516        3.5123283263
 H       -12.0526644493        2.1582976462        4.7092230244
 H       -11.8247816171       -1.4067388932        4.0765211741
 H       -11.2591883962       -1.2918646738        2.2964776574
 H       -12.8876544437       -1.0028687827        2.5934238917
 H       -15.7759576656        4.7205898835       -1.0688481461
 H       -16.1649632713        4.4761777227       -2.7180049953
 H       -15.1413368115        5.8719375422       -2.2221813284
 H       -15.5598485004        2.0730172842       -1.3455478225
 H       -14.2097220661        1.4212164418       -2.5582642943
 H       -15.7175830228        2.1829052951       -3.1261991218
 H       -11.2082301579        5.6631586109       -7.9408469578
 H       -11.0500750419        3.8640903837       -8.3326208714
 H        -9.8230550246        5.1526935245       -8.8016659498
 H        -7.7791376222        4.0647648549       -7.5600069096
 H        -8.8138494906        2.6626201493       -7.0644127203
 H        -8.1745034690        3.7310490060       -5.8500939982
 H       -10.6955294819        8.1973767490       -1.6810273505
 H       -10.5880440224        9.8855300670       -2.3541154840
 H        -9.9830291196        9.5314619190       -0.8042465038
 H        -7.8492001335       10.5106559062       -2.1996286446
 H        -8.2159195916       10.2532453559       -3.9214372465
 H        -6.7701674364        9.4852283182       -3.0149993284
 H        -8.7881265147        2.5828334092        0.1451123333
 H        -7.1771920426        1.8850608844        0.0465070780
 H        -7.6886563339        2.6069121577       -1.3854827118
 H        -7.9478931249        3.7263159636        2.3209048065
 H        -6.2510550266        4.4659605777        2.0920208133
 H        -6.5833635029        2.7160002652        2.0856197055
 Na      -11.0202800942        6.0199612268       -1.4629555966
