117

 C       -12.8643437032       -1.9576347525       -7.1652706167
 C       -11.5108511262       -2.3222729529       -6.5345903826
 O       -11.1698758656       -3.4763326134       -6.3774493286
 C       -10.4960653061       -1.1408545378       -5.9538137086
 C       -11.0657786600       -0.5037881044       -4.7050929156
 O       -11.8983633356        0.3979229576       -4.7645152041
 C       -10.9507298458       -1.4152397657       -3.4857240479
 C       -11.8238335626       -0.9059812999       -2.2637584168
 C       -11.5490925920       -1.7031420112       -0.9223541131
 O       -12.2397467289       -2.6152602233       -0.5846055031
 C       -10.3575831652       -1.2022871789       -0.0467923079
 C       -10.9961045262       -0.0419428723        0.7799859548
 O       -11.7636171777        0.7101304915        0.1925990345
 C       -10.6055187950        0.0848793559        2.2545611173
 C       -11.5640902612        0.9070607994        3.0668472327
 C       -11.5569578964        2.3516883290        2.8137413220
 O       -10.5798916891        2.8078052051        2.1401811949
 C       -12.6541704193        3.1756381927        3.5461254302
 C       -12.1974777525        4.7593427889        3.5268147358
 O       -11.0144780156        5.0838198551        3.6807763693
 C       -13.2420996646        5.8498842949        3.3799778547
 C       -13.6818333385        6.1563937922        1.9662323271
 C       -12.5354726602        6.1591584277        0.8621802484
 O       -11.8153053449        5.1819613791        0.7168321445
 C       -12.1657510858        7.6159945637        0.0455660869
 C       -10.5577958070        7.6110533157       -0.0702050416
 O        -9.9710763621        6.8373304852        0.6360437428
 C        -9.9121097360        8.5885233382       -1.0626107875
 C        -8.3977371445        8.4374054061       -1.2974419133
 C        -7.5766234278        9.3061194323       -0.3845117871
 O        -8.0763186836       10.0265823377        0.4211037998
 C        -5.9842566423        9.1899280919       -0.2671100293
 C        -5.6909141123        7.9692178936        0.5897040167
 O        -5.4772415207        6.8520769501        0.1448219517
 C        -5.6269161201        8.0581901978        2.1323787284
 C        -5.3086495651        6.6608018496        2.7657968222
 C        -6.4164009040        5.6052067440        2.5667920283
 O        -7.5694586589        5.9460309614        2.6612312651
 C        -6.0911174618        4.0647081530        2.0928818032
 C        -6.5694550745        3.9189899720        0.6099276290
 O        -7.7536566508        4.0153431956        0.3422876809
 C        -5.6591288865        3.5419319590       -0.5191418547
 C        -4.5672544033        3.7009782408        2.2165737965
 C        -6.8917941827        3.2604323405        3.1907145555
 C        -5.3964240602        9.0596062020       -1.7096406679
 C        -5.3837306002       10.4013059255        0.3550070374
 C       -12.7829528332        7.4826850806       -1.3788934456
 C       -12.5903683748        8.9291279686        0.7163313311
 C       -14.0672313512        2.9419021044        3.1053963898
 C       -12.6064191520        2.6469393495        5.0252208155
 C        -9.9434495275       -2.4494754316        0.8555505526
 C        -9.2170872743       -0.6180653947       -0.8586605668
 C        -9.0792578863       -1.8943083556       -5.7470367521
 C       -10.3940676156       -0.0167544264       -7.0266852018
 H       -13.4664387020       -2.8874494450       -7.1560289206
 H       -12.6615885926       -1.6721397121       -8.1246187197
 H       -13.2242799892       -1.1317627409       -6.6649987191
 H        -9.8920878174       -1.3684048491       -3.2282341072
 H       -11.2936388568       -2.3836237267       -3.6809404941
 H       -12.9030825333       -0.8831436243       -2.4161437501
 H       -11.7089814357        0.1853658677       -2.0475487002
 H        -9.5805748243        0.4721706036        2.4598668771
 H       -10.5881690350       -0.9298644064        2.7075329270
 H       -11.1719904034        0.8939946294        4.1070071650
 H       -12.5556550617        0.5377418829        3.1027996954
 H       -12.7911332353        6.7565920293        3.8604785040
 H       -14.1379628888        5.5079443913        3.8968430489
 H       -14.0075054065        7.2365914612        1.9856223831
 H       -14.5801352812        5.5314756647        1.7933763641
 H        -9.9835977986        9.5724455313       -0.5955961235
 H       -10.4209632514        8.5101334112       -2.0064624106
 H        -8.2728750387        8.7166807690       -2.3572215814
 H        -7.9351583527        7.4237259942       -1.1896985218
 H        -6.4953816354        8.5545449871        2.5947711249
 H        -4.7293744458        8.6654176743        2.3353486637
 H        -5.1546175799        6.7746062867        3.8110862719
 H        -4.4066536699        6.2734886822        2.3655865863
 H        -4.8096252099        4.2802308433       -0.5499643630
 H        -6.0519275115        3.7106982622       -1.5386136733
 H        -5.3449244192        2.4744901040       -0.4567909697
 H        -4.0427228516        3.8927152889        3.2472323337
 H        -4.0710333619        4.2681211461        1.4767227313
 H        -4.4481638139        2.6921577205        1.9456180070
 H        -7.9534594741        3.4580880921        3.0614314746
 H        -6.5761497320        3.5749017763        4.1341422724
 H        -6.8529646009        2.1880687633        3.0056148992
 H        -5.7187290095        9.9571872604       -2.2661321129
 H        -5.8721787933        8.1531905096       -2.1415382600
 H        -4.3691837167        8.9162747467       -1.8094088548
 H        -4.3575833777       10.2455460252        0.4698154666
 H        -5.7977274087       10.6735819746        1.3216465016
 H        -5.4471094132       11.1876481732       -0.3233271002
 H       -13.8808670578        7.3721564875       -1.3326349946
 H       -12.3476075929        6.6217987498       -1.9509363516
 H       -12.6418155490        8.4117494776       -1.9200791290
 H       -11.9156858187        9.2215776013        1.5635163277
 H       -13.6536299246        8.8372524445        1.0614526214
 H       -12.5138343273        9.7608095760       -0.0521070929
 H       -14.2821992688        3.3309049437        2.0882564102
 H       -14.7844756971        3.3716280035        3.7683744567
 H       -14.2746893021        1.8715593105        2.9571836187
 H       -13.0610439672        1.6585854934        5.0549065527
 H       -13.2069047247        3.2568413025        5.7355260789
 H       -11.5944314211        2.6051910287        5.4946553280
 H        -9.3976530480       -3.1705935808        0.2554159287
 H       -10.8621253640       -2.8947621851        1.2119444065
 H        -9.3173366717       -2.2027513751        1.7219221725
 H        -9.5565241734        0.3540070131       -1.3025990601
 H        -8.8902213634       -1.3284945834       -1.6025329438
 H        -8.4162701213       -0.3637799826       -0.1948517581
 H        -9.3615008154       -2.7996245064       -5.2660515780
 H        -8.3910718032       -1.2681814855       -5.1513577441
 H        -8.7261709642       -2.2294615315       -6.7681956099
 H       -11.3709963283        0.2711467782       -7.3780379667
 H        -9.8903780232       -0.3975920375       -7.9615955448
 H        -9.8842600357        0.9425925964       -6.8062009797
 Na       -9.4234378305        4.9213616183        1.7906183839
