117

 C        -5.2432811986        2.7997844095       -1.1544590389
 C        -5.7114604944        3.8951314516       -0.2166771092
 O        -5.0847570109        4.8406216058        0.1457090963
 C        -7.2924496430        3.7141349213        0.4994995564
 C        -8.0025351187        5.0055183967       -0.0240366018
 O        -8.8240857028        4.8905058892       -0.9329258128
 C        -7.7050817727        6.3247280403        0.6363361075
 C        -8.3859327636        7.4903124654        0.0552845855
 C        -7.6441421719        7.9504149282       -1.3277024800
 O        -6.4552377338        7.9423583558       -1.3725918388
 C        -8.3520317022        8.6300281180       -2.7304091970
 C        -8.4972018448        7.3297835366       -3.5669635805
 O        -9.4668781427        6.6056472371       -3.3959878218
 C        -7.4759840039        7.0192722217       -4.6426079135
 C        -7.7523422392        5.8162022934       -5.5808060111
 C        -9.3072470648        5.6593928098       -6.1311568775
 O        -9.9700496320        6.6813410299       -6.2459784730
 C        -9.8013260521        4.3246063405       -6.7203062557
 C       -10.9385459377        3.6772068150       -5.7508553588
 O       -10.6482450845        2.7218775662       -5.1482654047
 C       -12.4082879816        4.1121517413       -5.8230793655
 C       -13.2382416404        3.4592928758       -4.5762552474
 C       -13.4106556563        4.3425513707       -3.3513150145
 O       -12.8906026891        5.4728304997       -3.1518914308
 C       -14.2426659866        3.7845774995       -2.0368391550
 C       -13.4892269716        3.9773840554       -0.6805363353
 O       -13.0180339979        5.0695758667       -0.5070680967
 C       -13.2351078017        2.6686435381        0.1100379966
 C       -12.4519752895        2.6891736398        1.3662826094
 C       -11.9820292347        1.1708488304        1.7197758517
 O       -12.0899423947        0.3235531355        0.8133543033
 C       -11.5720786871        0.6515645916        3.1422001077
 C       -10.0982819414        1.3778583260        3.5704825726
 O        -9.8761640977        2.4372681540        3.1077767322
 C        -9.1947816311        0.5839752871        4.4998301198
 C        -9.6801857635        0.2239401869        5.8756152824
 C        -8.7739312101       -0.8686465390        6.4416061317
 O        -7.5937612922       -0.9606551038        6.1380005183
 C        -9.1490927694       -1.9085012279        7.5031270435
 C       -10.3269151488       -2.9240333638        6.8872186639
 O       -10.8663030363       -2.5488157097        5.8665202098
 C       -10.6012277774       -4.3475635224        7.4717472515
 C        -7.8328154804       -2.5954509472        7.9190929493
 C        -9.8660438357       -1.1433524107        8.7335030155
 C       -12.6770708497        1.1788681338        4.0386469424
 C       -11.4518125755       -0.9323580351        2.8891059934
 C       -15.5948951486        4.6422315847       -1.9635310447
 C       -14.8041796356        2.3777557487       -2.3243374658
 C       -10.5149439780        4.7381667116       -8.0037676075
 C        -8.6185559356        3.4375249657       -6.9158016212
 C        -9.7381775362        9.3151219800       -2.3369819024
 C        -7.2518917035        9.6585111982       -3.1211277668
 C        -8.1577023568        2.5917746988        0.1110808238
 C        -7.0056802679        3.7400803435        2.0610900660
 H        -4.6542537225        2.0306248508       -0.6201151653
 H        -4.5982023493        3.3611717501       -1.8946948816
 H        -6.0525504430        2.1666766167       -1.5786224606
 H        -6.6450828218        6.4505416166        0.6655878211
 H        -7.9864301980        6.1996366413        1.6958358094
 H        -8.4154191877        8.3857913818        0.6750699587
 H        -9.4165863471        7.2829396422       -0.1559510500
 H        -6.5650739569        6.7117906038       -4.1677205732
 H        -7.2339345510        7.7754041122       -5.3001315323
 H        -7.4573506437        4.8447687169       -5.0692199598
 H        -7.2784491045        5.9368948656       -6.6182576118
 H       -12.8406724248        3.6462786913       -6.6741879010
 H       -12.4056329484        5.2099727412       -5.9829409703
 H       -12.5787581888        2.7688648513       -4.0940322759
 H       -14.2045368683        2.9203339080       -4.8016177044
 H       -12.9316201514        1.7733789070       -0.5272306409
 H       -14.3204473828        2.3852705991        0.3915590035
 H       -13.0719206041        3.1055340391        2.0626759370
 H       -11.5430885139        3.3673256658        1.3347641754
 H        -8.2178839398        1.1875797975        4.5570436500
 H        -8.8345782052       -0.3623390041        4.1431738996
 H       -10.7080871634        0.1826500674        5.8710879875
 H        -9.6557335008        1.1309703588        6.5329255511
 H        -9.7647139137       -4.8446978029        7.8376517157
 H       -11.0161846550       -5.0272376677        6.6920739287
 H       -11.4037081894       -4.2699718920        8.2430886033
 H        -8.1472348243       -3.5315689022        8.3253941744
 H        -7.2073448723       -1.9039711069        8.4894728971
 H        -7.3765449210       -2.8963244066        6.9842418378
 H        -9.5482290845       -0.0866871688        8.6986922401
 H        -9.8816809387       -1.6435160009        9.6535689690
 H       -10.9102086055       -1.1030446886        8.5562491762
 H       -13.5228991822        0.5789441162        3.8635736074
 H       -12.8763311080        2.2146775003        3.8995908519
 H       -12.4117706696        1.1871134259        5.0356425492
 H       -11.0887866011       -1.2622246531        3.9511415155
 H       -10.6589295484       -1.0314496473        2.0833524747
 H       -12.3738594543       -1.4591671777        2.6500205525
 H       -16.2842394627        4.0168156871       -1.4521398318
 H       -15.9121591210        4.8968903583       -2.9671725162
 H       -15.4797698265        5.5624151118       -1.3232303516
 H       -15.5719166483        2.0616060303       -1.6421996256
 H       -13.9297277763        1.7411492765       -2.2186662506
 H       -15.3214777620        2.4206935499       -3.2837594406
 H       -11.3457048956        5.4593432799       -7.7608695643
 H       -10.8412690403        3.9367618912       -8.5607821982
 H        -9.8318103616        5.4012297797       -8.4718696089
 H        -7.7716010244        4.0696687019       -7.2855065551
 H        -8.7990203452        2.5442592595       -7.5246950796
 H        -8.3195838157        3.0064528780       -6.0332487932
 H       -10.4692506435        8.5159430813       -2.0944479787
 H       -10.1173642499        9.8180790731       -3.1735392111
 H        -9.7299034992        9.9818952020       -1.4571389305
 H        -7.2658937114       10.4531840484       -2.3668383330
 H        -7.8753904621       10.0349335480       -3.9756397855
 H        -6.2288684054        9.1799083488       -3.2128864135
 H        -9.2164846155        2.9571931985        0.4600404346
 H        -7.8811466691        1.7711294566        0.7091907509
 H        -8.0197949555        2.2855370684       -0.9526629038
 H        -7.9563580089        3.5530431423        2.5378047761
 H        -6.6239769768        4.7550481599        2.4332603523
 H        -6.4073768419        2.8672709153        2.3703364243
 Na      -10.9800379097        5.7867743885       -1.6571283039
