117

 C        -5.5552135346        2.7265570821       -1.1975195721
 C        -6.0669842177        3.7968287726       -0.1759535844
 O        -5.3256692585        4.7059473197        0.1817045302
 C        -7.4036194377        3.6987056115        0.6420732723
 C        -8.1711658355        4.9765301508        0.0461813575
 O        -8.7901928118        4.7735449959       -0.9903362431
 C        -7.7553628360        6.3231825949        0.5151582850
 C        -8.4444752767        7.4418319619       -0.3079826440
 C        -7.4187378998        7.9508022476       -1.3679028808
 O        -6.2381667431        8.1266803653       -1.2526156825
 C        -8.1238468825        8.4461915418       -2.7698452672
 C        -8.3892504788        7.1405452654       -3.5219812398
 O        -9.4570182540        6.5200702716       -3.3861838835
 C        -7.5090786002        6.8696889031       -4.7090969347
 C        -7.9558314784        5.4526164646       -5.3582181049
 C        -9.2890197778        5.4842953606       -6.0345310596
 O        -9.8850811295        6.5474722592       -6.0145614073
 C        -9.9531176822        4.2393569690       -6.7514200766
 C       -10.9015569510        3.8385999480       -5.6371928079
 O       -10.5139386825        2.8992436359       -4.8834717066
 C       -12.3282542105        4.3882725095       -5.6064068365
 C       -13.1538187664        3.6469323743       -4.6420054804
 C       -13.3592955505        4.5663280132       -3.2589656992
 O       -12.9418740084        5.6775218880       -3.3166214741
 C       -14.1753053908        3.9128952758       -2.0893835009
 C       -13.3395438468        3.9045300444       -0.7219244626
 O       -12.6187469085        4.9324922727       -0.5732440394
 C       -13.4981418134        2.6462547461        0.1975426759
 C       -12.5479367021        2.7978586907        1.4127592863
 C       -12.1249612060        1.2670857487        1.6679039046
 O       -12.2117879126        0.5015298250        0.7362508925
 C       -11.5659683379        0.7363317414        2.9911131709
 C       -10.2294824933        1.5263577403        3.6370525075
 O        -9.9758217452        2.6958234259        3.1924037707
 C        -9.1965714229        0.9440898289        4.6248466944
 C        -9.7677058180        0.2222794752        5.9154772135
 C        -8.6590978669       -0.8852401913        6.4304546829
 O        -7.6053448806       -1.1355526222        5.8103842427
 C        -9.1206821313       -1.7572167338        7.5661519352
 C       -10.2759799789       -2.7465959129        6.9561524353
 O       -10.8064532038       -2.4899127385        5.8853368615
 C       -10.8936606349       -3.8433724281        7.8453939549
 C        -8.0548631955       -2.8508209706        8.3064913121
 C        -9.8158175771       -1.0481221742        8.7779561666
 C       -12.7064280529        0.8590581441        4.2543699501
 C       -11.2233152612       -0.7453109746        2.9462684664
 C       -15.3933044587        4.8761350560       -2.1016290931
 C       -14.5108014284        2.5035886037       -2.5487135581
 C       -10.5154086913        4.5668628872       -8.0919217000
 C        -9.0428476703        3.0298863423       -7.0361275058
 C        -9.3922887390        9.2601854703       -2.4869243619
 C        -7.1651761595        9.4854547138       -3.6841473608
 C        -8.1134441496        2.3946498804        0.2862670654
 C        -6.8955107379        3.6405813241        2.1549784227
 H        -4.8130231012        2.1964130144       -0.6523096729
 H        -5.1179476582        3.2183988969       -1.9762734642
 H        -6.2146169856        1.8849566694       -1.4429821280
 H        -6.6540461933        6.2827516404        0.3541152100
 H        -7.8563656988        6.4295827454        1.5776288895
 H        -8.7238478118        8.3957479487        0.2213517869
 H        -9.3940599778        7.1552865155       -0.8652978630
 H        -6.4214579025        6.8700127848       -4.7798140305
 H        -7.9351216599        7.5794719849       -5.5329321065
 H        -8.0918482793        4.6710456486       -4.6348461320
 H        -7.3015745955        5.1555472468       -6.1262832797
 H       -12.9296466160        4.2762062282       -6.5936232730
 H       -12.2997991186        5.4722706991       -5.3794670615
 H       -12.7923211726        2.6397123544       -4.3308964885
 H       -14.1004345596        3.5572067801       -5.1240110943
 H       -13.1554179278        1.7247265100       -0.2645789191
 H       -14.4940891184        2.4079710527        0.4464705111
 H       -13.1596064816        3.1221781496        2.3427939876
 H       -11.7170195441        3.4870760268        1.3193733312
 H        -8.4947473993        1.6525480720        4.9221546326
 H        -8.6500682885        0.1265889383        4.1384126984
 H       -10.8432076672       -0.1845127878        5.9112020590
 H        -9.9755892515        1.0366108449        6.6091854672
 H       -10.1052575526       -4.3051242081        8.5018201996
 H       -11.2906845409       -4.6957048112        7.2822818462
 H       -11.7198405839       -3.4483354932        8.3875762500
 H        -8.5333534249       -3.1713946951        9.2438745753
 H        -7.1554451808       -2.3102157377        8.3554091774
 H        -7.9022739044       -3.7314107406        7.7277503971
 H        -9.2230952391       -0.2564354300        9.1562253493
 H       -10.0962709659       -1.8635064611        9.4663365439
 H       -10.7782909764       -0.5830923823        8.5625894629
 H       -13.7104006467        1.2357851187        3.9901783206
 H       -12.3682600191        1.3885398309        5.1667211956
 H       -12.8628073056       -0.1536251135        4.7512773729
 H       -10.8495539662       -1.1747848933        3.8703189638
 H       -10.6500430610       -0.9013443398        2.0253068084
 H       -12.2313610612       -1.2502609194        2.7494237364
 H       -16.1587487671        4.5946137732       -1.3799623578
 H       -15.7423291636        4.9075618276       -3.1377592230
 H       -15.0419758672        5.8076678517       -1.8960548923
 H       -15.0530822651        1.9881925613       -1.6824628303
 H       -13.5941882950        1.9170260672       -2.7142934505
 H       -15.3323171027        2.6662861192       -3.3075710429
 H       -11.0011239011        5.5295492332       -8.0857589181
 H       -11.3251634723        3.7733899950       -8.2715466681
 H        -9.6529484063        4.5585345461       -8.8452355791
 H        -8.3916934822        3.1592584483       -7.8652234447
 H        -9.6884089887        2.1842352842       -7.1909034446
 H        -8.2723945117        2.6284736340       -6.2060309992
 H       -10.0995523774        8.9903113002       -1.7230172838
 H       -10.0559412700        9.3058845341       -3.4036340552
 H        -8.9858312531       10.2295208385       -2.2066382808
 H        -7.0245425946       10.3056117088       -2.9617158529
 H        -7.6354678331        9.8133902811       -4.5309810174
 H        -6.2766055634        8.9479135182       -3.7539327095
 H        -8.6610351795        1.9993210775        1.2031575224
 H        -7.3865433451        1.6149665739        0.0266386979
 H        -8.7542109946        2.5071747245       -0.5255744630
 H        -7.7505819706        3.3858636721        2.8871302688
 H        -6.3693885553        4.4409137347        2.6031050394
 H        -6.3345200127        2.7225877460        2.0172476132
 Na      -10.8978241042        5.6895260398       -1.9921944524
