117

 C        -5.6914238833        2.6465130158       -1.3368610034
 C        -5.9569930384        3.6682397001       -0.2617523993
 O        -5.2939493763        4.6577573943       -0.0566499826
 C        -7.3663003678        3.5888555761        0.6061051834
 C        -8.2082820430        4.7745776030       -0.0211412168
 O        -9.2575074319        4.5286574688       -0.5954482509
 C        -7.8827399963        6.2483072867        0.4732606824
 C        -8.2948941181        7.3390488433       -0.4123770227
 C        -7.2424491496        7.9195512945       -1.5493698408
 O        -6.0974680824        8.2497904330       -1.2927072114
 C        -7.9675923423        8.4940643922       -3.0591213010
 C        -8.2900962851        7.0982151260       -3.6699020498
 O        -9.2826573691        6.5134522563       -3.2429285478
 C        -7.4989559621        6.5020848077       -4.7658118003
 C        -8.0637401136        5.1303975242       -5.3018558901
 C        -9.2438991513        5.2460910788       -6.1565327787
 O        -9.8026277545        6.2892905238       -6.1802017491
 C        -9.9815929926        3.9563622682       -6.8183250516
 C       -10.9478903367        3.7525263403       -5.6194037013
 O       -10.6048559487        3.2692239066       -4.5870044142
 C       -12.1217049378        4.6599184738       -5.6863887970
 C       -13.2780078162        4.0897891942       -4.7936020704
 C       -13.2686266134        4.6575568113       -3.3709167094
 O       -12.6975753217        5.7298081620       -3.1127675051
 C       -14.0985446364        4.0088607126       -2.1351210478
 C       -13.0035488942        3.8249701509       -0.8020327901
 O       -12.1790488318        4.6243135718       -0.6038831762
 C       -13.6351844649        3.0633014398        0.3779501311
 C       -12.7162107934        2.7188582789        1.5072472252
 C       -11.9975677172        1.2868589731        1.6670145039
 O       -12.0805703375        0.3757467997        0.8777699009
 C       -11.6096642730        0.8117410831        3.2076253770
 C       -10.3821449223        1.6721032921        3.6190422617
 O       -10.3609738010        2.7736218967        3.2557856221
 C        -9.2323911970        1.0350555231        4.6392578717
 C        -9.7564122424        0.2925644676        5.8511161100
 C        -8.7974952253       -0.9379384289        6.1921533457
 O        -7.7369874346       -1.2131992467        5.7643041952
 C        -9.2323042141       -1.6218019461        7.6409046296
 C       -10.4832877477       -2.5977942225        7.1131082727
 O       -10.7740961324       -2.6349334368        5.9587911616
 C       -11.2853483513       -3.4896459097        8.1597658507
 C        -8.1135049905       -2.5873765119        8.1184168307
 C        -9.6956757786       -0.7144061478        8.7663109006
 C       -12.7042987443        0.8112631061        4.2307437911
 C       -10.8800612371       -0.6898656666        3.0139883341
 C       -15.2552290411        4.9533313855       -1.7699589937
 C       -14.7188450296        2.5848409418       -2.4375616056
 C       -10.7160177779        4.5747330351       -8.1025120531
 C        -8.8640049239        2.8471065581       -7.0656086689
 C        -9.3040594752        9.3173306325       -2.7347347955
 C        -6.8741249823        9.2103805785       -3.8240854275
 C        -8.2622457256        2.2420289756        0.4627979842
 C        -7.3770934403        3.9037561160        2.1360752860
 H        -5.4573402695        1.6138236127       -0.9878140170
 H        -4.9430967953        3.0736093335       -2.1168881362
 H        -6.6564889094        2.5040168782       -1.7438297521
 H        -6.8138374918        6.3841251365        0.7163534673
 H        -8.4576795571        6.4566792452        1.4387347813
 H        -8.4291900679        8.1822915728        0.2068566640
 H        -9.2071132443        7.2242257227       -0.9081481092
 H        -6.5885292905        5.9658270061       -4.4445784847
 H        -7.2158513283        7.2102879386       -5.4638825463
 H        -8.5244318544        4.6597381810       -4.4202280321
 H        -7.2847253986        4.3851788332       -5.7264736698
 H       -12.4619887839        4.7127625249       -6.6482852127
 H       -11.8565426937        5.6686366132       -5.4023488638
 H       -13.1981953539        3.0585753949       -4.5325272146
 H       -14.3276837499        4.3215285966       -5.1235129437
 H       -14.1003183693        2.1144071294        0.0367241625
 H       -14.4650927077        3.7389278140        0.7317332344
 H       -13.0020119955        3.0892569143        2.4462130814
 H       -11.7769091926        3.3154649810        1.2159776851
 H        -8.6008799568        1.9075118638        5.0512173402
 H        -8.5445949671        0.2652182229        4.2072296543
 H       -10.7420413229       -0.2167174877        5.6898905928
 H        -9.9831792413        1.0211006812        6.6293474637
 H       -10.7075796880       -3.9533618797        8.9302021519
 H       -11.7469918356       -4.2556546949        7.6045848875
 H       -12.1656962867       -2.8987108251        8.5225281868
 H        -8.5106946416       -2.9013873142        9.0703922458
 H        -7.0554767481       -2.1700461022        7.9610603156
 H        -8.1580587386       -3.5141058683        7.4224567506
 H        -8.8685954814       -0.4923271347        9.4923832757
 H       -10.5451241360       -1.1807724879        9.2859828918
 H        -9.9859116065        0.3332111142        8.4063628290
 H       -13.0899892637        1.8989130855        4.2972406658
 H       -12.4457453074        0.5264064774        5.2584005267
 H       -13.5632955898        0.1770033094        4.0045325214
 H       -10.6841117642       -1.0315183321        4.0595484834
 H        -9.9627208167       -0.4078339551        2.4289621332
 H       -11.4675727467       -1.4118491311        2.4388286168
 H       -15.6067188182        4.7468633546       -0.7450535808
 H       -16.0177414904        4.6199602208       -2.4682481303
 H       -15.0813277302        6.0984145111       -1.9928345010
 H       -15.5366665921        2.4280289232       -1.8139770657
 H       -13.9482661977        1.8908233353       -2.1958042767
 H       -14.9759387395        2.6193454106       -3.4335457116
 H       -11.1944998782        5.5236231588       -7.7700233027
 H       -11.4966127121        3.9219369298       -8.4075766208
 H       -10.0272038077        4.6599407895       -8.9274766094
 H        -8.0494309568        3.2269506293       -7.7412339483
 H        -9.2757082404        1.9202263173       -7.5545169688
 H        -8.3364390357        2.5126706242       -6.2693092938
 H       -10.0132878161        8.5184861973       -2.3917737945
 H        -9.8776178078        9.7854052988       -3.4956278345
 H        -9.1118161588        9.9284697564       -1.8541416205
 H        -6.8114076599       10.1123172457       -3.3337327332
 H        -7.2317643535        9.2471560455       -4.9185849347
 H        -6.0141576634        8.5558556413       -3.6183786961
 H        -9.0308494923        2.2876535735        1.1152497957
 H        -7.6121838992        1.3889138873        0.8373526425
 H        -8.7128268959        2.0456650593       -0.6389984314
 H        -8.2788201157        4.3813622305        2.3177390379
 H        -6.6878272405        4.7928145886        2.3869313169
 H        -7.1528337018        3.0537321280        2.7648369839
 Na      -10.7743292618        5.5328145071       -2.0950375303
