117

 C        -5.9054941725        2.4530958701       -1.2797026762
 C        -6.1461971640        3.4946836129       -0.1923001444
 O        -5.3766733554        4.3860988865        0.0186428938
 C        -7.4969202975        3.5939423762        0.6486201833
 C        -8.2658422924        4.8263618422        0.0463358845
 O        -9.3597047924        4.5406518582       -0.4125339108
 C        -7.5381222933        6.1198936947       -0.0704650632
 C        -8.3915253171        7.2360604252       -0.7397263873
 C        -7.3233353512        7.9587663959       -1.6218214205
 O        -6.1491430632        7.9659443955       -1.2427033067
 C        -7.6119953686        8.3779538364       -3.2000282831
 C        -8.0717340213        6.8767016600       -3.8882168699
 O        -9.1545850193        6.4460123793       -3.5681506190
 C        -7.1229270958        6.0786411474       -4.7643200577
 C        -7.7544421223        4.8382770138       -5.3747132529
 C        -8.9859089047        5.3657569369       -6.2358985775
 O        -9.1960141627        6.4499154870       -6.7385766480
 C        -9.9995326795        4.0379322362       -6.6462939575
 C       -11.1212017860        3.9978335888       -5.5127010292
 O       -10.8120624754        3.5364689624       -4.4665751801
 C       -12.5378579804        4.5508292118       -5.6544202891
 C       -13.5029319104        4.1865386165       -4.5479532646
 C       -13.1863758540        4.6375083928       -3.0170348206
 O       -12.5736864428        5.6368151183       -2.7507087585
 C       -14.0103207330        4.0342620935       -1.7997994352
 C       -13.0411730448        3.5814342395       -0.7049808807
 O       -11.8789445154        3.8164997990       -0.6881709694
 C       -13.6882521000        2.9882052007        0.5075692545
 C       -12.6558254743        2.7311136985        1.6265312815
 C       -11.9764391555        1.4179367719        1.6693203544
 O       -12.0507171404        0.6438747183        0.7188173507
 C       -11.5314225655        0.7767069287        3.0623067351
 C       -10.5684263272        1.6612278801        3.7689984704
 O       -10.6209963707        2.9259937126        3.6899275077
 C        -9.3539984455        1.1739800813        4.4635010502
 C        -9.7657481899        0.7235546855        5.8804671010
 C        -9.0128774931       -0.5390268279        6.2252137201
 O        -8.2534345681       -0.9246665570        5.4144603358
 C        -9.3346216088       -1.4413082160        7.5235438079
 C       -10.6669798269       -2.2484459503        7.2664444975
 O       -10.8871671851       -2.7593954819        6.2296790274
 C       -11.5480716053       -2.5018349668        8.4559260060
 C        -8.3261837356       -2.4999163206        7.8942162527
 C        -9.6683361164       -0.4743978913        8.7130197525
 C       -12.7928179163        0.7746799313        3.9143129968
 C       -11.0946760498       -0.6574778992        2.7457714445
 C       -14.9298256951        5.1655209406       -1.2320837416
 C       -14.8792160642        2.8122431548       -2.1602416319
 C       -10.6020342351        4.3110031284       -8.1566578804
 C        -9.2934663741        2.6614992933       -6.4834390590
 C        -8.8197982698        9.3339729849       -3.3905141566
 C        -6.4013581810        8.8491924921       -3.9278560479
 C        -8.4677275561        2.4076002818        0.6752438507
 C        -7.0733841659        3.9960854493        2.0910359020
 H        -5.9790928415        1.4422517328       -0.9823021128
 H        -4.9586773330        2.6345157212       -1.8280698093
 H        -6.7287634158        2.6007990874       -1.9296617762
 H        -6.5560923376        5.8977303338       -0.5631549366
 H        -7.2918052723        6.5140459649        0.8890230843
 H        -8.7564194530        8.0120035555        0.0345165026
 H        -9.2428702181        6.8544666940       -1.3031622992
 H        -6.2728054950        5.8069126733       -3.9906509211
 H        -6.5014399496        6.5500039586       -5.5832500545
 H        -8.1911318657        4.2707137507       -4.6016259591
 H        -7.2387511321        4.1549874153       -5.9736652718
 H       -12.9856000827        4.3708102542       -6.6456450323
 H       -12.2242221815        5.6332884911       -5.6554496431
 H       -13.3879633849        3.1003104629       -4.3915665549
 H       -14.5441212131        4.4648923021       -4.6820034658
 H       -14.1021047744        2.0633253379        0.2345653932
 H       -14.4504308146        3.6283236749        0.8575105195
 H       -13.0845747124        2.8693745941        2.5841627093
 H       -11.8387480292        3.5332314336        1.4085012027
 H        -8.6178362385        1.9897077275        4.4517424186
 H        -8.9345341291        0.3374680548        3.9462826159
 H       -10.7880533190        0.5469367299        5.8579771830
 H        -9.4725484284        1.4688636759        6.7176763929
 H       -10.9033690231       -2.7519670567        9.2708675339
 H       -12.2501389019       -3.3299644977        8.2717062456
 H       -12.1768905811       -1.6180834709        8.6823343558
 H        -8.8013538994       -3.2023570896        8.4995355001
 H        -7.5868888293       -1.9778626794        8.4763233825
 H        -7.8749990680       -2.8595298583        6.9892998242
 H        -8.9768813065        0.3847364790        8.9169962970
 H        -9.5020448625       -1.0020913933        9.6383322485
 H       -10.6495025417       -0.1336509161        8.5213924533
 H       -12.7448030757        1.1575048434        4.9748408400
 H       -12.9825486720       -0.2693263304        4.2564106691
 H       -13.6513971186        1.1904952895        3.4246775800
 H       -10.9623458735       -1.3562278318        3.6191465082
 H       -10.1844044064       -0.4996426154        2.1718430865
 H       -11.8142763276       -1.0399698196        2.0719078527
 H       -15.6977384504        4.6826429811       -0.7475118639
 H       -15.3371308796        5.8505472214       -1.9285600975
 H       -14.2802266621        5.7512211348       -0.5181102288
 H       -14.8174600268        2.2267106878       -1.2749376517
 H       -14.2132009602        2.4185534241       -2.9665065554
 H       -15.8243457960        3.0600261293       -2.6123726463
 H       -11.0856513293        5.3487301054       -8.0547139854
 H       -11.2848330578        3.5506558061       -8.4610222492
 H        -9.7730129501        4.1790476293       -8.8585090716
 H        -8.3005102886        2.5407657902       -7.0682166633
 H        -9.7898517522        1.7896007848       -6.9747813042
 H        -9.0562794470        2.5109586423       -5.5270278550
 H        -9.6525849495        8.6021424340       -3.2752166243
 H        -8.9636798908        9.8932015205       -4.2713932717
 H        -8.9633435099        9.9561418227       -2.4692982192
 H        -6.0673227791        9.6486758386       -3.3962406921
 H        -6.8785101530        9.0886004940       -4.8634165424
 H        -5.6904800576        8.0777752181       -4.0182860656
 H        -9.1598669675        2.5212181707        1.4463414192
 H        -8.0822213386        1.3721780706        0.7164079514
 H        -9.2958111470        2.4976850087       -0.1475235110
 H        -7.8030556410        4.1784706279        2.8081973493
 H        -6.6043953129        5.0194926720        2.0444078298
 H        -6.2009977749        3.4059467648        2.3908537397
 Na      -10.6594498525        5.0753466668       -2.3079425739
