117

 C        -5.9432449535        2.3712289739       -1.2512284853
 C        -6.1718211971        3.4360441412       -0.2239824759
 O        -5.2464276786        4.2096221359       -0.0388012946
 C        -7.4931128928        3.5375621811        0.7626136185
 C        -8.1738678477        4.8159301254        0.0505570751
 O        -9.2775279927        4.7240291817       -0.4696095612
 C        -7.5128670454        6.1550214503        0.0241655880
 C        -8.2243778502        7.1392594076       -0.8800444729
 C        -7.3190508571        7.8264936627       -1.7696328310
 O        -6.1876533973        8.1484927619       -1.4273399022
 C        -7.5799487699        8.2088601823       -3.3421141242
 C        -7.9658386848        6.8487322257       -3.8850958210
 O        -9.1738471207        6.5076625238       -3.7014943228
 C        -7.0710148194        6.1664595630       -4.7702271464
 C        -7.7161951146        4.9217477019       -5.3832557361
 C        -8.9517546033        5.1585334742       -6.2734600546
 O        -9.0087894769        6.1587588423       -6.8860729369
 C       -10.0711945211        4.0911846114       -6.4229227136
 C       -11.1368578867        4.2414920274       -5.3284088713
 O       -10.8572398508        3.6774504498       -4.3003044838
 C       -12.6040559052        4.7185596630       -5.5352114749
 C       -13.4184511614        4.0136704216       -4.4143882160
 C       -13.3226560312        4.6746229922       -3.0273559160
 O       -12.6090344224        5.6852772188       -2.8182637531
 C       -14.0597457719        4.0483168152       -1.8280793896
 C       -12.9999384593        3.5773076583       -0.7355326472
 O       -11.8026499164        3.6339707085       -0.9000117424
 C       -13.6446717677        3.0607809218        0.5594681582
 C       -12.7635936752        2.8134038456        1.7078769735
 C       -12.2008192157        1.3970599495        1.5748040424
 O       -11.8879201718        0.7510213890        0.6487250552
 C       -11.6764169724        0.7264331199        3.0190910632
 C       -10.6557197344        1.8693668073        3.6537961456
 O       -10.8880534536        2.9936058626        3.6609501100
 C        -9.4275104023        1.1314052266        4.5284068622
 C        -9.7299854274        0.7679348409        5.9987102688
 C        -8.9641825272       -0.6294820711        6.2214398696
 O        -8.2147537299       -1.1609981636        5.4411797494
 C        -9.4239036382       -1.3009830388        7.5828572580
 C       -10.7519739077       -2.1507867552        7.2569632270
 O       -10.9660699683       -2.7269557597        6.1932356887
 C       -11.6886573617       -2.2735702484        8.5489978091
 C        -8.3273831675       -2.4138768288        7.8488949362
 C        -9.5574043429       -0.2654265570        8.7205196493
 C       -12.9402542826        0.7255384273        4.0392235526
 C       -10.9334662781       -0.6093734902        2.7210883340
 C       -14.8847606355        5.1446994165       -1.1628548901
 C       -15.1431848368        2.8379722656       -2.2341666505
 C       -10.5957479644        4.3673636033       -7.8301180071
 C        -9.5034842015        2.7416745268       -6.4096943814
 C        -8.7045460277        9.2120479900       -3.5286063163
 C        -6.1904736728        8.7573642177       -3.9810732660
 C        -8.4799660996        2.4096729558        0.9322840952
 C        -7.0201048427        3.8411873296        2.2394043117
 H        -5.8244219297        1.3609541292       -0.8313735253
 H        -5.0575717955        2.6035781908       -1.8637120606
 H        -6.7800320889        2.3680089572       -1.8712629751
 H        -6.4521463332        5.9848238026       -0.2732898960
 H        -7.4935843048        6.5533777610        1.1083548459
 H        -8.7429485299        7.9264117837       -0.4089311601
 H        -8.9389545878        6.5560056115       -1.4526105647
 H        -6.0691865176        6.0226055517       -4.2083933505
 H        -6.7305030774        6.7167726745       -5.6079628265
 H        -7.9475303905        4.1599091842       -4.7088274827
 H        -7.0699107388        4.3907743015       -6.1570067288
 H       -12.9285381481        4.2983601974       -6.4234291212
 H       -12.6915276485        5.7820907650       -5.6667054703
 H       -13.2255617327        2.9575395404       -4.3070897772
 H       -14.5361017033        4.1861040654       -4.5951320467
 H       -13.9921199497        2.1004153991        0.2855233761
 H       -14.4442330324        3.7123817017        0.8412748631
 H       -13.2157259224        3.0123482201        2.6749581552
 H       -11.8274027601        3.4326443169        1.5155747224
 H        -8.6398153943        1.9313727491        4.5688977940
 H        -8.9011998906        0.2407634460        4.0724900268
 H       -10.8478361904        0.5246513755        6.0433742966
 H        -9.4069018008        1.4482082657        6.7028626700
 H       -11.0897562305       -2.4969544587        9.4477238425
 H       -12.4118329342       -2.9834024799        8.3881304145
 H       -12.2473836473       -1.2999299593        8.6736321719
 H        -8.6759401659       -3.2144998501        8.4657033865
 H        -7.4443947503       -1.9338501682        8.3467975688
 H        -8.0586993736       -2.5947873236        6.7729774512
 H        -8.9505230395        0.5993467913        8.5743042774
 H        -9.0953028875       -0.5549395250        9.6344781435
 H       -10.6320251523        0.0408377847        8.6745413403
 H       -12.8851357446        1.2085046602        5.0780539906
 H       -13.2015902690       -0.2456431796        4.4462697640
 H       -13.7852111414        1.1828363899        3.4361835673
 H       -10.3340859821       -1.0133259479        3.5419386160
 H       -10.2907729552       -0.2795720631        1.8954361028
 H       -11.6775761318       -1.3450781695        2.3253193828
 H       -15.8057253679        4.7068549133       -0.7373614770
 H       -15.2211109668        5.8771151312       -1.8726497884
 H       -14.2678901248        5.6799322865       -0.4226905270
 H       -15.2982026726        2.4413160576       -1.2992859602
 H       -14.7259398561        2.2274973977       -2.9526897525
 H       -15.9735980501        3.2682200905       -2.6761253378
 H       -11.0281552054        5.3494060627       -7.7991168015
 H       -11.3414983524        3.5587950838       -8.0260925093
 H        -9.7790742221        4.1318325251       -8.5570073322
 H        -8.9143751797        2.5243709214       -7.2535975725
 H       -10.1926647700        1.9233332892       -6.5388995233
 H        -8.8458481091        2.5968657790       -5.5015456459
 H        -9.6697492358        8.7699465185       -3.1259272935
 H        -8.9149042973        9.5096634805       -4.5935171727
 H        -8.4925649684       10.0924201564       -2.9288862014
 H        -6.0734385844        9.6874798898       -3.5033531972
 H        -6.4003007159        8.8036288483       -5.0445423496
 H        -5.4287137696        8.0734242370       -3.7310520070
 H        -8.9951085349        2.3051194026        1.8456305266
 H        -8.0041235679        1.3462652724        0.7252918980
 H        -9.3317447922        2.5522389781        0.2575475745
 H        -7.8634382660        4.0558943625        2.8888276556
 H        -6.3980161762        4.7198577995        2.4733714804
 H        -6.3966280194        3.0466835288        2.6075338364
 Na      -10.5493292930        4.8444129842       -2.4956941436
