117

 C       -12.9300222907       -2.0287373842       -7.0909616531
 C       -11.5275722097       -2.2909195919       -6.5331663563
 O       -11.1967431937       -3.4628751591       -6.4309105298
 C       -10.5549807337       -1.2279258765       -6.0548849600
 C       -11.1938185453       -0.6959059264       -4.7195161714
 O       -11.7929223028        0.3397166250       -4.7100221489
 C       -10.8760234483       -1.5749968163       -3.4290751593
 C       -11.8537751310       -1.0858580259       -2.3156806226
 C       -11.5736728166       -1.8222345925       -0.9990114585
 O       -12.1843383648       -2.7788457917       -0.5709858278
 C       -10.4149344790       -1.2231477553       -0.0594696588
 C       -11.1259863102       -0.0836066644        0.8177508586
 O       -11.8776364324        0.7154956722        0.3000436635
 C       -10.5071596947        0.1985912937        2.2155267872
 C       -11.4257654464        0.8353320699        3.2205043492
 C       -11.5031465417        2.4143706138        2.9574711563
 O       -10.6719969326        2.9346298018        2.2746717196
 C       -12.6241790728        3.2484277621        3.7467424856
 C       -12.2292459710        4.7835475385        3.6225379348
 O       -11.0403649074        5.0469889609        3.7452449198
 C       -13.2182509063        5.9769896125        3.3425636095
 C       -13.6172282592        6.2519231537        1.8140973290
 C       -12.4085049405        6.2568939097        0.8309690353
 O       -11.8915312347        5.1827837730        0.6665757637
 C       -12.1424456219        7.4693713162       -0.0131110183
 C       -10.5188554954        7.5274573668       -0.0626217075
 O        -9.7415881998        6.9861773444        0.7017418059
 C        -9.9105643881        8.5452935936       -1.0527462960
 C        -8.4597003041        8.3198654737       -1.3130815903
 C        -7.6649700930        9.2078661052       -0.2936451751
 O        -8.2476709439        9.9944842246        0.3940906314
 C        -6.0821869565        9.1797042247       -0.3511998414
 C        -5.6883388742        7.9166522073        0.4723892900
 O        -5.3526641936        6.8611813399       -0.0845159434
 C        -5.7255086620        8.0771666429        2.0554294556
 C        -5.3301476271        6.8047386368        2.7981431102
 C        -6.3654688492        5.7312438953        2.4025436673
 O        -7.5263701802        6.0076212877        2.6184900379
 C        -6.0504302244        4.2628022422        2.0577145292
 C        -6.5340400727        3.9704091689        0.6117479074
 O        -7.7396192021        3.9887701931        0.3411033966
 C        -5.4924412733        3.5550953243       -0.3893047637
 C        -4.5511711114        3.8056788782        2.3268725974
 C        -6.8546036079        3.2521393740        2.9318657869
 C        -5.5608599994        9.0667475181       -1.8398663266
 C        -5.4695795419       10.4741726945        0.2631466008
 C       -12.8002419997        7.4141777360       -1.4411287022
 C       -12.6467567289        8.8136147121        0.5426403603
 C       -14.0629616744        2.9382036831        3.3100798956
 C       -12.4016165071        2.7173315605        5.1925233237
 C        -9.9321121774       -2.4034822968        0.8353213548
 C        -9.2642060072       -0.5945166090       -0.7862754333
 C        -9.1808528966       -1.8391295754       -5.6151194201
 C       -10.3282981894       -0.0292761125       -7.0001252986
 H       -13.5430080263       -2.9171584763       -7.0295845051
 H       -12.5865811913       -1.8946434084       -8.0861710297
 H       -13.2885732723       -1.0275710888       -6.7762458747
 H        -9.8836067206       -1.4916985298       -3.1501676766
 H       -11.2594273018       -2.6381815188       -3.5492550498
 H       -12.8813505779       -1.1411685860       -2.5882088103
 H       -11.8338142299       -0.0228630615       -2.0560131227
 H        -9.7386546295        0.9274828291        2.0329620815
 H        -9.9445490384       -0.6065854295        2.6398637757
 H       -11.0794760136        0.6919393695        4.2213778649
 H       -12.4527745688        0.3637954859        3.1807226536
 H       -12.5799567273        6.8701543043        3.7053110530
 H       -14.1254320879        5.8343873502        3.8687676199
 H       -14.1870038365        7.1920787918        1.7961115567
 H       -14.2931653090        5.3886452087        1.4806370183
 H        -9.9762705693        9.4920947261       -0.6028880337
 H       -10.4158488203        8.4699648821       -1.9655831463
 H        -8.2842983098        8.5562487377       -2.3389372120
 H        -8.1733955514        7.2884964113       -1.1669310994
 H        -6.8600230239        8.2200164005        2.2848546407
 H        -5.1514855300        9.0037763926        2.3400168435
 H        -5.3265237382        6.8669261189        3.8975116784
 H        -4.3548291079        6.4144347744        2.4684789060
 H        -5.0356354661        4.5060749660       -0.6751836153
 H        -5.8524819915        3.1977732439       -1.3996274452
 H        -4.8066337924        2.7577260747       -0.0413529192
 H        -4.2423250657        3.9910923077        3.3179975110
 H        -3.7739003768        4.1884239499        1.6237150870
 H        -4.5678892765        2.7336297204        2.1423937160
 H        -7.9364612044        3.3061427613        2.7875630608
 H        -6.5546621959        3.3853564872        4.0728783121
 H        -6.6365643629        2.3040737131        2.5512890521
 H        -5.7991468280       10.0150432937       -2.3658895774
 H        -5.8651410314        8.1949666364       -2.3737185793
 H        -4.4618811726        9.0686883275       -1.8407966260
 H        -4.4529313637       10.5019542987        0.0694665140
 H        -5.6077930656       10.5471151772        1.2869899356
 H        -5.8109975283       11.3329116084       -0.2164000739
 H       -13.8630693067        7.1660707806       -1.3318080368
 H       -12.3220100498        6.7516037711       -2.2309621010
 H       -12.8436370944        8.4379347029       -1.7755011400
 H       -12.2392085454        8.8831957307        1.5403828565
 H       -13.7803893924        8.8011179027        0.5816215101
 H       -12.2563281413        9.7253538454       -0.0565868010
 H       -14.2245476791        3.1453080558        2.2309691691
 H       -14.9315120530        3.4460923194        3.8404718827
 H       -14.1575115805        1.8984518248        3.2819824565
 H       -12.7494310658        1.6708187866        5.2114206720
 H       -13.1574404074        3.1791184644        5.8031489237
 H       -11.4901008783        2.8343008469        5.7309150705
 H        -9.7111916243       -3.2489537031        0.2334621681
 H       -10.6398787569       -2.6606504311        1.6207570136
 H        -9.0130702228       -2.1560090118        1.2436302498
 H        -9.5262122373        0.4145697160       -1.1081807051
 H        -8.9321266729       -1.2723769206       -1.5704018117
 H        -8.3932998440       -0.4968695942       -0.1336158407
 H        -9.4943055346       -2.7289483609       -5.0904904047
 H        -8.7748617448       -1.0874129464       -4.8797456688
 H        -8.5594428232       -2.1210617709       -6.4642997698
 H       -11.2486548014        0.2284231194       -7.5099452586
 H        -9.6370689554       -0.1628883552       -7.8019695372
 H       -10.0739677493        0.9145639781       -6.4932329427
 Na       -9.4416979210        4.9568615931        1.7920993910
