117

 C        -6.3320510657        1.9519523500       -1.0215911914
 C        -6.0420650771        3.0923042122       -0.1228613365
 O        -5.0328206282        3.7525902522       -0.1151385686
 C        -7.3620872889        3.6089387329        0.9615990103
 C        -7.9738369862        4.7889610249        0.1569909154
 O        -8.9238559641        4.4873079489       -0.5710249226
 C        -7.4991270113        6.2487959771        0.1971205999
 C        -7.9504274919        7.2013692774       -0.9761166715
 C        -6.9090607920        7.8248989805       -1.8890341404
 O        -5.9879917579        8.5218601858       -1.4023821231
 C        -7.1881116027        8.0382129501       -3.5124570072
 C        -7.7411639789        6.7385292216       -4.0802571239
 O        -8.9291154198        6.4462934199       -3.8837838199
 C        -6.8861042299        5.8006155051       -4.9876336289
 C        -7.7286420507        4.5496547921       -5.3427300813
 C        -8.8734142227        4.9346752642       -6.3979924753
 O        -8.7808238539        5.6831043891       -7.2919245734
 C       -10.2363927213        3.9163798396       -6.5338177930
 C       -11.0885300849        4.0561696631       -5.1377135334
 O       -10.7131703440        3.4911454914       -4.1589527543
 C       -12.4363638004        4.7805757693       -5.3008955677
 C       -13.5240091905        4.2589433346       -4.4490443654
 C       -13.5261396626        4.8348360435       -3.0279319086
 O       -12.8131526336        5.8347999425       -2.8078637211
 C       -14.4542388537        4.2715142379       -1.9117947903
 C       -13.3406468246        3.4852184829       -0.7996471921
 O       -12.2657526500        3.1788255948       -1.2731663167
 C       -13.9742459521        2.9211348987        0.4915851589
 C       -12.9310066006        2.7358675857        1.7139003946
 C       -12.1050049058        1.5048979423        1.6819661274
 O       -11.7169375450        0.9743731960        0.6901562453
 C       -11.7368226095        0.7960093375        3.1367096719
 C       -10.8317798488        1.7718303547        3.9079589890
 O       -11.1491569686        2.9406791843        3.9729766984
 C        -9.3658521153        1.3319279241        4.5235586653
 C        -9.7381596555        0.7439017265        5.8348157079
 C        -9.0210525271       -0.4979699894        6.1251446029
 O        -8.4702353737       -1.1442447893        5.3067471651
 C        -9.3401682946       -1.1423196792        7.6215686411
 C       -10.8335149317       -1.7413972119        7.3959828842
 O       -11.2313581049       -2.3031223269        6.4059571374
 C       -11.8689743801       -1.6359113524        8.6082446617
 C        -8.4813984398       -2.3686902976        8.0485795513
 C        -9.3486038248       -0.0734996641        8.7738273488
 C       -13.0057107921        0.5609152597        3.8011353721
 C       -10.9474560059       -0.5450334735        2.7225352918
 C       -15.0396786580        5.4997461300       -1.2518663641
 C       -15.5425750305        3.1569012163       -2.1974389043
 C       -10.9486547642        4.3859889731       -7.8365448600
 C        -9.7779029389        2.4904977229       -6.6693109433
 C        -8.3726827756        9.1757418897       -3.4796566338
 C        -6.0719138823        8.6438260352       -4.4093038828
 C        -8.3975213346        2.5243334665        1.1678144322
 C        -6.7556200187        4.1125856098        2.3119460962
 H        -6.2462212779        1.0124857864       -0.4746654772
 H        -5.5942224015        1.8262327741       -1.8889641734
 H        -7.2624557517        2.1773913863       -1.4091488083
 H        -6.4152399295        6.2263747585        0.2249955982
 H        -7.8076776149        6.6187158435        1.1273939403
 H        -8.4383873195        8.1027107551       -0.4229772894
 H        -8.7483989860        6.7003860249       -1.5830926296
 H        -5.8288020511        5.4716595083       -4.5852860912
 H        -6.5058258011        6.3962953408       -5.8657281737
 H        -7.9188952262        4.1761258070       -4.3843228816
 H        -7.1373068975        3.7563818315       -5.7997585146
 H       -12.8206368882        4.7031948188       -6.3356380434
 H       -12.2289438144        5.9334482937       -5.2424743420
 H       -13.3335053270        3.1571434828       -4.2846523574
 H       -14.4308333611        4.3864593054       -5.0343468593
 H       -14.3355066164        1.9270389566        0.2079118433
 H       -14.7301547774        3.5932125948        0.8851291164
 H       -13.4421133052        2.9707477034        2.5765140952
 H       -12.0380564810        3.4459355970        1.4956413067
 H        -8.6887084901        2.1476195229        4.5821126017
 H        -8.9580892161        0.5787530190        3.9350134967
 H       -10.7465140194        0.3865162449        5.7703665973
 H        -9.6040555871        1.4410433471        6.6935475559
 H       -11.3550211764       -1.8249473056        9.5483970698
 H       -12.6662647847       -2.2709896027        8.3957934017
 H       -12.2334239395       -0.5600347579        8.7589270392
 H        -8.4233367382       -2.3145605936        9.0459077053
 H        -7.4901554937       -2.1973384246        7.6673114734
 H        -8.9329409762       -3.2935906073        7.6543598629
 H        -8.4095064956        0.0978614495        9.3055999537
 H       -10.0162126924       -0.3028421263        9.5889037316
 H        -9.7629884443        0.7799100825        8.2698716957
 H       -13.2863504467        1.3998488531        4.4518601765
 H       -12.8762750347       -0.1627229545        4.5416524639
 H       -13.8523777517        0.3363873121        3.2334685194
 H       -10.8952446709       -1.1755880451        3.6340376373
 H        -9.8773560115       -0.3930713382        2.4393064520
 H       -11.5254697613       -1.0486985135        1.9141526740
 H       -15.4865810706        5.2736501574       -0.3201751519
 H       -15.8701054766        5.7795230162       -1.8263587471
 H       -14.3023630238        6.3596144766       -1.1869871716
 H       -16.2890652711        3.2141818865       -1.3373507675
 H       -14.8351475841        2.2738685344       -2.3329053804
 H       -16.0252745564        3.4662369041       -3.1899205357
 H       -11.0808959252        5.4593326527       -7.6275261154
 H       -11.8550434258        3.8205861588       -7.9226885153
 H       -10.2160229052        4.3934370968       -8.6541917721
 H        -9.0469964065        2.3178920027       -7.4779942193
 H       -10.5623019403        1.7577657419       -6.9836145685
 H        -9.3862438580        2.0187803120       -5.7385186148
 H        -9.0132518839        8.8188708061       -2.6796433462
 H        -8.9216578352        9.2449782189       -4.3716396941
 H        -8.0366546922       10.1794513619       -3.2573060122
 H        -5.5985343289        9.4634465474       -4.0025276405
 H        -6.8355326704        8.9364684340       -5.1912347835
 H        -5.4945868990        7.8151691121       -4.7908275853
 H        -9.1646868368        3.0110141336        1.6120064457
 H        -8.2993036409        1.6995526077        1.9311789599
 H        -8.7745010204        1.9430659476        0.2578192501
 H        -7.2842154392        4.8079627723        2.9499106117
 H        -5.6738795493        4.4822242593        2.2044914751
 H        -6.5196166845        3.2940446833        3.0235223748
 Na      -10.1627820337        4.8822207268       -2.1800825459
