117

 C        -6.6428543810        1.6033105845       -0.4959533874
 C        -6.0284214856        2.8977868048        0.1181552635
 O        -4.8767502212        3.1693927816       -0.0592155107
 C        -6.9269411155        3.7802524627        1.0104200781
 C        -7.6528613486        4.7985374669       -0.0519225555
 O        -8.6350071070        4.4590650800       -0.7323280091
 C        -6.9195776879        6.1255829712       -0.2484044418
 C        -7.6947428686        7.3308061455       -0.7871571035
 C        -6.7231346436        7.6958025147       -1.9837596591
 O        -5.6010654280        7.9097936216       -1.7457607819
 C        -7.2089568424        7.6981518750       -3.6101292460
 C        -7.9239209635        6.3628430439       -3.9025290574
 O        -9.0428663652        6.0686177128       -3.4125344204
 C        -7.1462534069        5.4984944645       -4.8821888775
 C        -7.9102691072        4.3133913902       -5.4124066521
 C        -8.8508778556        4.6110086205       -6.5620450850
 O        -8.5633603133        5.4446133415       -7.3856418471
 C       -10.2356631689        3.7413723401       -6.6688950637
 C       -11.0651033135        3.9779221946       -5.3350875934
 O       -10.7509958874        3.3111908636       -4.3786413903
 C       -12.2759624907        4.8970484271       -5.3167230202
 C       -13.1984061082        4.3768619223       -4.2377345711
 C       -13.5937568659        5.1571650709       -3.0113485808
 O       -12.9534133704        6.2193043941       -2.7629602761
 C       -14.4266819441        4.3945042568       -1.8999467355
 C       -13.4333896812        3.6555833911       -0.8743196600
 O       -12.2343654809        3.9312484032       -0.9117725112
 C       -14.0504793027        2.8053733894        0.1666546390
 C       -13.2418164175        2.7224777612        1.5137450077
 C       -12.1931478405        1.5290187021        1.5117191103
 O       -11.5765672235        1.1890758271        0.5739657392
 C       -11.8609435132        0.7622268909        2.8609177433
 C       -11.0710251774        1.8157929303        3.7787327708
 O       -11.4884084274        2.8931879163        3.9438450701
 C        -9.5383092877        1.4663163279        4.5257770331
 C        -9.7859213867        1.0251879696        5.9365610929
 C        -9.1394472541       -0.3394317641        6.3019543107
 O        -8.3645036015       -0.9066492329        5.5626644197
 C        -9.5322339127       -0.9594156901        7.7360939245
 C       -11.1423586923       -1.1713200163        7.7526975397
 O       -11.6529650491       -1.5542887795        6.6738014374
 C       -11.9804810877       -0.9555858240        9.0659205097
 C        -8.8544125412       -2.4121022820        7.8376257056
 C        -8.9532499410       -0.1532535629        8.9415468571
 C       -13.1739962395        0.6121193752        3.6820259555
 C       -11.1142794221       -0.4846589478        2.5868466064
 C       -14.8753806153        5.4291098713       -0.8598800624
 C       -15.7168363512        3.6368969538       -2.5998635181
 C       -10.9453320475        4.1318786165       -8.0130666997
 C        -9.9941474737        2.2191660837       -6.7243925002
 C        -8.1948000523        8.8572488445       -3.7257784455
 C        -5.9154586504        7.8705833673       -4.5119355083
 C        -8.0668511427        2.9958182222        1.7846050582
 C        -6.1783897724        4.4940314567        2.1298229240
 H        -7.4498209972        1.1524946749        0.1789664153
 H        -5.9704439218        0.7348613484       -0.5337670800
 H        -7.0369766532        1.8055234360       -1.4983970751
 H        -6.2845028965        5.8017645347       -1.0744559696
 H        -6.1982838062        6.3048253890        0.4899159506
 H        -7.8225345666        8.1436008501       -0.0173736782
 H        -8.6889806307        6.9846607920       -1.1701097019
 H        -6.0653119262        5.3010970964       -4.4570254351
 H        -6.8604455850        6.0130957298       -5.7818325946
 H        -8.4530558741        3.8868259499       -4.6797374951
 H        -7.0746112392        3.5920282353       -5.6053018225
 H       -12.6451151055        5.1470662115       -6.2903631760
 H       -11.9923559727        5.9600469617       -4.9305807528
 H       -12.6133679717        3.5162910711       -3.8986154499
 H       -14.1500980010        4.0656277363       -4.6712687672
 H       -14.0218114731        1.7917182086       -0.3812798391
 H       -15.1803023628        3.0568986889        0.2780099599
 H       -13.8640436079        2.7831581749        2.3491849610
 H       -12.5691233300        3.6138126695        1.3812549615
 H        -9.0372543991        2.4156940764        4.3370977573
 H        -9.0029400418        0.6978714203        3.9507896077
 H       -10.8240780892        0.9235584647        6.3139077910
 H        -9.2743456303        1.6444651036        6.6502091248
 H       -11.9500594346       -1.8111653895        9.7409444361
 H       -12.9383123225       -0.7621640195        8.7372070800
 H       -11.5657884090       -0.0971928977        9.6824198369
 H        -9.2996529164       -3.0686162527        8.5738230696
 H        -7.8474460046       -2.0464978446        8.1325878256
 H        -8.9020494256       -2.9382317991        6.8508137339
 H        -8.3734119675        0.6729205603        8.5954993730
 H        -8.5215508382       -0.7859301324        9.6813948259
 H        -9.8149236242        0.2644595083        9.5037583761
 H       -13.4949366579        1.6169964974        3.9541767976
 H       -13.0476128551        0.0391735197        4.5267617876
 H       -14.0243028778        0.1479593324        3.2554437133
 H       -10.7705376772       -1.1024775930        3.4114650676
 H       -10.1699409045       -0.2435995924        1.9797467612
 H       -11.8145696525       -1.0892844280        1.8711753123
 H       -15.6392079243        4.9136912926       -0.2075522642
 H       -15.3235129700        6.3389546729       -1.2773240877
 H       -14.1067563126        5.7134599358       -0.1249171048
 H       -16.3109845988        3.2565084177       -1.6976892498
 H       -15.4437978431        2.7304718578       -3.1498080637
 H       -16.3809639115        4.4747070977       -2.9944730808
 H       -11.0648993087        5.1672986275       -8.1435965176
 H       -11.8575801529        3.5705050661       -7.9843356684
 H       -10.2329132795        3.8359895986       -8.7725561704
 H        -9.5112119134        1.8713208058       -7.5615054975
 H       -10.9490488399        1.7408721486       -6.6234265450
 H        -9.4195933123        1.6304542403       -5.8605108576
 H        -9.1780363943        8.5373804488       -3.3359525957
 H        -8.2973211849        9.3072732273       -4.7240318949
 H        -7.8020246778        9.6689384407       -3.1255542115
 H        -5.7501686934        8.9595856497       -4.4582672638
 H        -6.2661333692        7.7089565076       -5.5720881326
 H        -5.1180427004        7.2197589430       -4.0676224386
 H        -8.2525726607        3.3797254680        2.8258299751
 H        -8.0185113391        1.9430466314        1.9879530583
 H        -8.9168639907        2.9003642317        1.1963925674
 H        -6.5870466987        5.3636769809        2.6067881630
 H        -5.1631284075        4.7003559160        1.7411571631
 H        -6.1456461965        3.9775938682        3.0609154427
 Na      -10.5243014910        4.6952216310       -2.4198487499
