117

 C        -6.7497404516        1.4071260147       -0.3031190598
 C        -6.1472559950        2.6367113212        0.2507278255
 O        -4.9769198848        2.8999374876       -0.0527942510
 C        -6.9627446471        3.6782833224        1.0979481380
 C        -7.5652481272        4.6566907987        0.0762658162
 O        -8.5791750497        4.3731551931       -0.4805725525
 C        -6.8242897587        6.1046896983       -0.1084104367
 C        -7.4942107066        7.1273768678       -1.1654473016
 C        -6.5510581825        7.5558991793       -2.2669610457
 O        -5.3306628769        7.8736547787       -2.1803434352
 C        -7.1839215208        7.6310439831       -3.9225146102
 C        -7.8934158817        6.3012735175       -4.0627238100
 O        -8.9277559642        6.0343509749       -3.4418085127
 C        -7.1295159144        5.2955956875       -4.9082432278
 C        -7.9881954748        4.0563266141       -5.3486079523
 C        -8.9725312742        4.4330307954       -6.4212774095
 O        -8.6250772277        5.2328593857       -7.2136699228
 C       -10.4122872153        3.6218968042       -6.5983202594
 C       -11.1217751915        3.8467914885       -5.3107600385
 O       -10.6293109115        3.3144795804       -4.2719758538
 C       -12.1802199771        4.9700549036       -5.1588879671
 C       -13.4520652635        4.4819735681       -4.3233670514
 C       -13.5098723844        5.3538234353       -3.1177147246
 O       -13.4323344221        6.4908454805       -3.2263261141
 C       -14.2372797378        4.6870934333       -1.7258027641
 C       -13.1868695810        3.9075248808       -0.8681033013
 O       -11.9604956663        4.0201456891       -0.8705963243
 C       -13.9015738021        2.6528929405       -0.0113934862
 C       -13.3746957797        2.5868605059        1.4253278532
 C       -12.1921931761        1.5742190467        1.5185595133
 O       -11.5304179715        1.2757434999        0.4990123398
 C       -12.0214395696        0.7830163080        2.9158048175
 C       -11.1504871432        1.8558301766        3.7704924995
 O       -11.4692820667        3.0842732373        3.7977380382
 C        -9.8960305604        1.3453781220        4.4987934755
 C       -10.0288683860        1.1366993846        6.0168950185
 C        -9.2309052930       -0.2142825601        6.3513422245
 O        -8.3541586172       -0.5822186086        5.6706487905
 C        -9.6295493179       -0.8438064384        7.6954073658
 C       -11.2112558878       -0.8892272265        7.8702977019
 O       -11.8458491808       -1.0686811214        6.8923410062
 C       -11.8809095916       -0.8323246184        9.2826602411
 C        -9.3004057588       -2.3758354359        7.6391904633
 C        -8.8291127643       -0.0944424611        8.8230182038
 C       -13.3035488756        0.3126860713        3.6255509366
 C       -11.2227836245       -0.5068208312        2.6135556604
 C       -14.9533883043        5.8795134114       -0.9180809868
 C       -15.3010066664        3.6705648676       -2.3036434289
 C       -11.0966042760        4.1910555461       -7.9050272571
 C        -9.9678436644        2.2053679413       -6.6084921475
 C        -8.3017529440        8.8305646228       -4.0047295409
 C        -5.9251706376        8.0698071022       -4.6840363259
 C        -8.1672534875        3.1049262080        1.8606036472
 C        -5.8669371097        4.4323228514        2.0500860998
 H        -7.3964140600        0.8594866720        0.2989173329
 H        -5.9203859349        0.7208718065       -0.5387744459
 H        -7.1969802114        1.6378977726       -1.2522360379
 H        -5.7780594854        5.8708676728       -0.3586830979
 H        -6.6962955000        6.5388765587        0.9230561511
 H        -7.8567267969        8.0340146950       -0.6741342281
 H        -8.3511288822        6.5817976910       -1.5386519319
 H        -6.3849942978        5.1128064470       -4.1795242123
 H        -6.5045981163        5.6030085028       -5.8205531199
 H        -8.4342848466        3.5569805992       -4.3861572007
 H        -7.2800137141        3.3682216318       -5.7563297477
 H       -12.4926571914        5.2754298102       -6.1980029427
 H       -11.7194383254        5.8705176102       -4.7888318510
 H       -13.1574587017        3.4208587220       -4.1326347691
 H       -14.2785524373        4.5915617231       -5.0380939166
 H       -13.5041227532        1.7686018303       -0.4109750231
 H       -14.9348394005        2.6236440301       -0.1121301816
 H       -14.1440395164        2.0767366067        2.1105872731
 H       -13.0196630350        3.5240947829        1.8227686021
 H        -9.2511124166        2.1598193638        4.2539620561
 H        -9.5582932543        0.5403601242        3.9257763505
 H       -10.9423537930        0.8880154216        6.4329455710
 H        -9.6567022573        2.0478211783        6.6112784373
 H       -11.4738382900       -1.7505513288        9.7302446259
 H       -13.0027219911       -0.8617997336        9.2879836002
 H       -11.5239623082       -0.0750111031        9.9678250570
 H        -9.7543736521       -2.7243087575        8.5252239392
 H        -8.2718153928       -2.6263773894        7.5883407357
 H        -9.8919881207       -2.8254083305        6.8690246050
 H        -7.8100104907        0.0458117075        8.4377748941
 H        -9.0478166292       -0.5440441225        9.7692607459
 H        -9.1112123400        0.9252478751        8.8727279240
 H       -13.7976485752        0.9216878488        4.3708816238
 H       -13.1547098380       -0.7491922188        3.8926512119
 H       -14.1318534264        0.1388935166        2.9751845833
 H       -11.0537032319       -0.9533995251        3.6411538849
 H       -10.2129823980       -0.3008897362        2.2091533250
 H       -11.6681478051       -1.2218718877        1.9889681496
 H       -15.7164807510        5.6613313105       -0.2729060367
 H       -15.2283450908        6.6039333936       -1.6579545005
 H       -14.1977922550        6.4671473655       -0.3576100757
 H       -15.9897275087        3.1801256191       -1.6363297075
 H       -14.7053823517        2.7872612001       -2.7625097835
 H       -15.7961409043        4.3255903503       -2.9955285897
 H       -11.2966670612        5.3142153257       -7.7022785398
 H       -12.0488045707        3.6660339387       -7.8882746997
 H       -10.4411755658        3.9933468230       -8.7705069864
 H        -9.5329665488        1.7985914675       -7.5744419938
 H       -10.7604286156        1.5269291406       -6.2635137651
 H        -9.2339344136        1.9635715308       -5.9300909762
 H        -9.0105081468        8.9477793133       -3.1965577114
 H        -8.8584191992        8.5783287069       -4.8801540919
 H        -7.8154642430        9.7953138100       -4.2276714493
 H        -5.5725451999        8.9311053025       -4.1880721678
 H        -6.2335118652        8.3855870471       -5.6705973474
 H        -5.2360444471        7.2562072230       -4.6415261759
 H        -8.2255431879        3.4802410030        2.7954067966
 H        -8.2047310962        2.0103929093        2.0649854149
 H        -9.1855510851        3.0720033655        1.2837701269
 H        -6.3070866480        5.2509640961        2.5854362222
 H        -4.9733981768        4.7632110617        1.5516068593
 H        -5.6444663809        3.9031821387        2.9924575629
 Na      -10.0346529220        4.2828620490       -2.0986111632
