117

 C        -7.0176769302        1.3823949753       -0.0626215422
 C        -6.2017854788        2.6198233256        0.2448355191
 O        -5.0676340478        2.5949191871       -0.1330328726
 C        -6.8238613686        3.7021584106        1.2549869310
 C        -7.3814946742        4.8376563342        0.1271483825
 O        -8.4241317307        4.5422252208       -0.4976712669
 C        -6.6754576226        6.1695854971       -0.2880678219
 C        -7.3794606737        6.8466737734       -1.3855688148
 C        -6.4076815148        7.4399232191       -2.4819585855
 O        -5.2917744265        7.6963869580       -2.2526941668
 C        -7.1734222852        7.5187086924       -3.9636268991
 C        -7.7075658391        6.1744177103       -4.3045948223
 O        -8.8323539111        5.9479464575       -3.8254821227
 C        -6.9492228333        4.9750830889       -4.9470616379
 C        -7.9297428211        3.9034355833       -5.3060665103
 C        -8.8797618559        4.1994517247       -6.4070123152
 O        -8.7292633124        5.2452549378       -7.0800456417
 C       -10.2692582620        3.4883874560       -6.4711582005
 C       -11.0246339987        3.8263084069       -5.0638380678
 O       -10.6270989645        3.4645953740       -3.9986258887
 C       -12.1308578828        4.9640517621       -5.1498061472
 C       -13.3856169246        4.6016865776       -4.3313390463
 C       -13.7002230247        5.4910228442       -3.0862771853
 O       -13.5919710897        6.7748112941       -3.2466823240
 C       -14.1531109114        4.8289042615       -1.8064143255
 C       -13.0673623198        3.9589855901       -0.9731265027
 O       -11.9135267640        4.3341800924       -0.9978338281
 C       -13.8225060688        2.7928292505       -0.0741158550
 C       -13.3663901943        2.5689017427        1.3960424376
 C       -12.1421820040        1.4853718408        1.4879344449
 O       -11.4151205462        1.2183936674        0.5705957281
 C       -12.0222014332        0.6880361929        2.8647318061
 C       -11.2201942841        1.8689759708        3.5646454145
 O       -11.7150583917        2.9244403302        3.6902070589
 C        -9.8927776992        1.6007832115        4.4314387114
 C       -10.3513352960        1.2032653335        5.7984187988
 C        -9.4232323453        0.0085299705        6.4320974108
 O        -8.4290486339       -0.4026237190        5.8167206643
 C        -9.7588846118       -0.8604337865        7.7609128414
 C       -11.3200943476       -0.6372197560        8.0512556658
 O       -12.1917369274       -0.4541499698        7.1550804507
 C       -11.7786833623       -0.8112414529        9.5294887611
 C        -9.3825903709       -2.3511947167        7.5655676765
 C        -8.8578734149       -0.2060983134        8.8242791551
 C       -13.4078905376        0.4603381281        3.6208681090
 C       -11.1021956078       -0.5706055646        2.5783695297
 C       -14.7100085708        6.0102019670       -0.8499745682
 C       -15.4504341406        3.9350914625       -2.2485883643
 C       -11.1983890794        3.9096226765       -7.6390207703
 C       -10.0717365664        1.9948024319       -6.8499220908
 C        -8.2635484699        8.5992680303       -3.8077318550
 C        -6.2096774277        8.0235814364       -5.0989091170
 C        -7.9666839162        3.1158352430        2.0716052501
 C        -5.7483142311        4.2177241808        2.1841356003
 H        -7.1867102261        0.8546064730        0.9359092599
 H        -6.4412426852        0.7041870882       -0.6540516521
 H        -8.0595486611        1.5545965202       -0.5033805857
 H        -5.6480662055        5.8691707687       -0.5525562912
 H        -6.5193600222        6.7582949818        0.6003756740
 H        -8.1180857588        7.5252106191       -1.0009256017
 H        -8.0050354928        6.0104556049       -1.7765571833
 H        -6.0806486473        4.6304163176       -4.3104694450
 H        -6.5442147485        5.3218497531       -5.8297902732
 H        -8.3195676521        3.7977328466       -4.3391665959
 H        -7.3728516716        2.9417696424       -5.4965044214
 H       -12.3256410726        5.4018924652       -6.0725842712
 H       -11.5555838333        5.7246232095       -4.6061545220
 H       -13.2897363227        3.5737594672       -4.2213047800
 H       -14.0664927949        4.7690214601       -5.1738988699
 H       -13.9160679614        1.7677989820       -0.5761685002
 H       -14.8372384632        3.3425718176       -0.1063724174
 H       -14.1418936248        2.2178583307        2.0179270880
 H       -12.9767666780        3.4897694976        1.8484051533
 H        -9.2792379209        2.5236412509        4.3573557113
 H        -9.3590177883        0.7904401118        3.8287976259
 H       -11.4559028315        0.9206405289        6.0371114198
 H       -10.1540730764        1.9533447150        6.4930838168
 H       -11.1347370716       -1.3448972732       10.2136641987
 H       -12.8239459602       -1.1337116173        9.6663279942
 H       -11.7992978766        0.2253380363        9.8679028245
 H        -9.0417386240       -2.8676535823        8.5661809528
 H        -8.5947384769       -2.3791090753        6.7580656997
 H       -10.2758058513       -2.8812614565        7.1701281136
 H        -8.1653189661       -0.9319071476        9.1586409190
 H        -9.5508226426        0.2197859623        9.5973222213
 H        -8.0955880077        0.5245039846        8.4550633089
 H       -13.9269153754        1.4184517516        3.6425239300
 H       -13.2706320444        0.0649698133        4.6386466180
 H       -14.2086933720       -0.2596374027        3.2402624196
 H       -10.7578468139       -1.1070638657        3.4919528512
 H       -10.2564915775       -0.5238362369        1.8480420554
 H       -11.8708530349       -1.3333904045        2.0408749100
 H       -14.8672095189        5.7516303484        0.2700170952
 H       -15.7063962841        6.3499638067       -1.2339440731
 H       -14.1798043211        6.9083983047       -0.9382469426
 H       -16.2704432907        4.0709591545       -1.5627368147
 H       -15.3175630927        2.8833910001       -2.3490905829
 H       -15.7096987601        4.2130345231       -3.2878621116
 H       -11.1346236545        4.9143466628       -7.6979238224
 H       -12.2272167146        3.5678000341       -7.4528165006
 H       -10.7575851260        3.3747253536       -8.4701668345
 H        -9.2744904267        1.8271234100       -7.5486711429
 H       -10.9177523231        1.4832891694       -7.3076914875
 H        -9.7624634503        1.3984552430       -5.9851891130
 H        -8.8381516076        8.4187985499       -2.8763095447
 H        -9.0383217830        8.6217490986       -4.6198976369
 H        -7.7706281726        9.5424534186       -3.6186864360
 H        -5.4301809584        8.6964372709       -4.5358277657
 H        -6.7636659614        8.5605490464       -5.8843278424
 H        -5.6168772277        7.1350551211       -5.4967710516
 H        -8.7821257268        3.9145919941        2.4182850144
 H        -7.7092049848        2.6259717657        2.9759097838
 H        -8.5095351054        2.3871849108        1.5984595206
 H        -6.2593657372        4.6661619003        3.1194484567
 H        -5.1555654909        5.0454228207        1.8078905634
 H        -5.1091762450        3.4452662284        2.6016875868
 Na       -9.8622740830        4.0497355142       -2.1305974023
