117

 C        -7.5331350831        1.1931407959        0.7043782739
 C        -6.4258924885        2.2176096977        0.5318049427
 O        -5.4645976482        1.9509438017       -0.1473306239
 C        -6.6319038335        3.7395390101        1.1409552057
 C        -7.0956447232        4.6126686518        0.0246411794
 O        -8.3446071778        4.6071031804       -0.0633127121
 C        -6.1141295236        5.5222894319       -0.6530921534
 C        -6.6854560598        6.5706720374       -1.6151865425
 C        -6.1879684106        6.6046869948       -3.0371718809
 O        -5.0375304232        6.3604328273       -3.4362058085
 C        -7.2349583207        7.0467301203       -4.1599109604
 C        -7.5670415800        5.5198138133       -4.4141826737
 O        -7.9632947253        4.8385645860       -3.4727287440
 C        -6.9856843044        4.8171082154       -5.5916166384
 C        -7.7059480242        3.4978776926       -5.8106665205
 C        -9.0576252153        3.8866772306       -6.5096971939
 O        -9.1981452228        4.9964467917       -7.0176623441
 C       -10.3958119983        3.0536648623       -6.2461600206
 C       -10.8807037550        3.5483244641       -4.8496626569
 O       -10.3280883098        3.1402985459       -3.8027286670
 C       -11.6622264894        4.9196205968       -4.6911289642
 C       -13.1329990065        4.7356426952       -4.3853877845
 C       -13.4990007438        5.8736207206       -3.2434439010
 O       -12.9441325101        6.9675361914       -3.2648045620
 C       -14.1776761163        5.3864957908       -1.9208408572
 C       -13.0513874157        4.2860052042       -1.3038657436
 O       -11.9211402463        4.7094665235       -1.3718746898
 C       -13.5391417004        3.0370583180       -0.5699732815
 C       -12.7017814943        3.1157955027        0.6928958070
 C       -12.1021935612        1.6281673409        1.0795786067
 O       -11.7663609941        0.9363529078        0.1263616920
 C       -12.0111111402        1.0588822950        2.6396122044
 C       -11.5555086728        2.1862432789        3.5659996815
 O       -11.8157258337        3.2980795927        3.2403175816
 C       -10.6437140957        2.0375348055        4.7225157137
 C       -11.0763897377        1.1572097408        5.9385189469
 C       -10.0871596954        0.2607896568        6.5526910913
 O        -9.0446671869        0.0008116386        6.0235848054
 C       -10.2614631122       -0.4867319753        8.0218752350
 C       -11.5342366570        0.0067440145        8.8617077705
 O       -12.3940342117        0.8243490605        8.4900465269
 C       -11.5549269101       -0.5584426558       10.2497982774
 C       -10.1975001662       -2.0297287223        7.5259355136
 C        -8.9881775668       -0.2788527167        8.9072638352
 C       -13.4876339505        0.8449578579        3.0588851787
 C       -11.0993354287       -0.1603075718        2.6768329689
 C       -14.1581659392        6.4750262393       -0.6832884322
 C       -15.5578683515        4.7571398678       -2.1514475110
 C       -11.3593738670        3.1904336118       -7.4758727838
 C       -10.3048387752        1.5056834264       -6.0650278243
 C        -8.5869730296        7.8012817444       -3.7497177673
 C        -6.6555034125        7.7857977015       -5.3429438984
 C        -7.5402371034        3.6326485004        2.4191567674
 C        -5.1999582677        4.1274948671        1.6374519796
 H        -7.8557634952        1.2930977628        1.7621798880
 H        -7.2038553943        0.2765149693        0.4034453177
 H        -8.4897882443        1.5266475047        0.2307493598
 H        -5.3669028675        4.8933556160       -1.2108657608
 H        -5.6500250518        5.9928120380        0.1754136832
 H        -6.5304032031        7.6118751181       -1.2397874402
 H        -7.7837806059        6.5668457412       -1.6034840168
 H        -5.8960711003        4.6972773655       -5.2919040594
 H        -7.0816416328        5.4586267408       -6.3949000252
 H        -7.7230312038        3.0020547097       -4.8104187871
 H        -7.0696817243        2.8992043089       -6.5767477683
 H       -11.6926478843        5.5533316733       -5.5808450593
 H       -11.0619213529        5.3667965902       -3.8500914078
 H       -13.4118321754        3.6916879509       -4.0454167504
 H       -13.8262309375        4.7885191842       -5.2529838330
 H       -13.3160495018        2.0615240020       -0.9693208062
 H       -14.6326683585        3.1269200422       -0.5635037824
 H       -13.2060963172        3.5133513451        1.5473544791
 H       -11.7264531289        3.7262264469        0.6590559113
 H       -10.6094301294        3.0013806466        5.1431412255
 H        -9.6734688018        1.7755847055        4.3569950141
 H       -11.8884983428        0.3554336371        5.5691595282
 H       -11.5832611431        1.7901810716        6.6098391232
 H       -11.2981392567       -1.5819374557       10.3597781254
 H       -12.6273355205       -0.4778965934       10.5920507227
 H       -11.0406773019        0.1421298811       10.9143260084
 H        -9.8812823729       -2.6319853950        8.4331280945
 H        -9.5500436512       -2.3072289275        6.7287921759
 H       -11.1660679119       -2.3406773233        7.3264908711
 H        -8.8179715859       -1.1329521552        9.4552927208
 H        -9.0071543299        0.4688115467        9.7156206001
 H        -8.2195037364        0.0437848105        8.2072269665
 H       -14.0492586966        1.7227034668        3.0773422798
 H       -13.4914356633        0.5875972994        4.0706139774
 H       -13.9627359549        0.1746379629        2.3510166486
 H       -11.0466264467       -0.6266419951        3.6640095972
 H       -10.0662500670       -0.0259689056        2.4178632397
 H       -11.5704397902       -1.0339832042        2.1208135885
 H       -13.5254133603        7.4057739830       -0.6767684215
 H       -13.7940622140        5.9644145162        0.2304783082
 H       -15.0828289092        6.8560522872       -0.4629991403
 H       -16.3086254401        4.8899858414       -1.3355881697
 H       -15.5577509063        3.6709437104       -2.5047007017
 H       -16.2041040279        5.1640081648       -2.9828695798
 H       -11.1386167375        4.0233747489       -8.0728458648
 H       -12.4335195276        3.1198071777       -7.1476374734
 H       -11.0364646148        2.3174520308       -8.0844985488
 H        -9.8412079088        1.0009088311       -6.9762032932
 H       -11.3065890569        0.9745287383       -5.9322214291
 H        -9.7325681344        1.2579827265       -5.2933381601
 H        -9.1025988018        7.4245525249       -2.8488993480
 H        -9.2348849316        7.9729925831       -4.6217966890
 H        -8.3600516943        8.8374782423       -3.5784554804
 H        -6.6880275680        8.8906307130       -4.9910100934
 H        -7.1484808716        7.6490692526       -6.2571936115
 H        -5.5953440343        7.5638708960       -5.5141249141
 H        -7.9045647609        4.6404229875        2.8432900579
 H        -6.9016516955        3.2328568247        3.1694963088
 H        -8.5179424611        3.1119477666        2.2723360432
 H        -5.2970165024        5.1299542067        2.0728664283
 H        -4.3495000373        4.2004202989        0.9938702347
 H        -4.9391912603        3.3109045381        2.2490223826
 Na       -9.6682624144        4.7299929799       -1.9136932727
