117

 C        -8.0598693344        1.3849954903        1.4244662680
 C        -6.8186560217        1.8317501785        0.7099435751
 O        -6.0811966460        1.1475276064       -0.0023717285
 C        -6.2461475963        3.2867250031        1.1295187524
 C        -6.8057629945        4.3013154401        0.0268455283
 O        -7.9709511850        4.5207972016       -0.1616950935
 C        -5.8730025299        4.8322822897       -1.1005519114
 C        -6.4668865141        5.9733423429       -1.8424544205
 C        -5.8702678500        6.0255727623       -3.2552254153
 O        -4.7201194793        5.5033605414       -3.4247650810
 C        -6.7285008885        6.5519723691       -4.4949947015
 C        -7.5127365826        5.1932664615       -4.8242221072
 O        -8.0700746279        4.6662321444       -3.8796265944
 C        -7.5694381081        4.5579037426       -6.2432040921
 C        -8.2165492418        3.1477454634       -6.2979589627
 C        -9.7617946515        3.0552904398       -6.7143765924
 O       -10.1624307097        3.5610521585       -7.7426475273
 C       -10.8088381540        2.4116658862       -5.6266929653
 C       -10.7464700427        3.4309895755       -4.4443799609
 O       -10.3726933132        3.1289349721       -3.3278626414
 C       -11.1775678591        4.9993680976       -4.7613481652
 C       -12.7431289460        4.9857009243       -4.3963856374
 C       -13.0479067336        6.0956365006       -3.4309448877
 O       -12.8074545104        7.2319651476       -3.6206556379
 C       -13.5874645961        5.6990508264       -1.9773056509
 C       -12.2683941778        4.9597729077       -1.3321952490
 O       -11.2088116964        5.5304029874       -1.5505044218
 C       -12.2299582646        3.5928217198       -0.7716762224
 C       -12.4234534358        3.5681809196        0.7286071156
 C       -12.1238106464        2.0825065570        1.1971829038
 O       -11.4932408136        1.4158268157        0.3885197155
 C       -12.5833369602        1.6004662402        2.5236229202
 C       -11.7180315316        2.3230088194        3.6894217329
 O       -11.9941021813        3.4525825891        3.8159285689
 C       -10.5288574534        1.6015978983        4.4252993809
 C       -11.3844373159        1.1312539572        5.6449371577
 C       -10.5490155569        0.8023820665        6.9105944735
 O        -9.6156447970        1.5500749327        6.9870852164
 C       -11.0271432563       -0.1028711281        8.1671967351
 C       -11.5821441979        0.9522557632        9.2014973730
 O       -12.2898969240        1.8500182992        8.7391546456
 C       -11.2790458543        0.8246372421       10.7254654414
 C       -11.9832173971       -1.1422106501        7.7601985952
 C        -9.8065075338       -0.9271786250        8.7149112225
 C       -14.1656326314        1.8904939223        2.9601826578
 C       -12.5957198778        0.0498810614        2.6773666627
 C       -13.8171948459        6.9481715192       -1.1082780840
 C       -14.8192863632        4.8899218096       -2.1748394832
 C       -12.1555538634        2.1887250178       -6.4042079540
 C       -10.2522125684        0.9818193980       -5.2867152705
 C        -7.8336382272        7.5512576179       -4.2052751093
 C        -5.8034281696        7.0552754399       -5.6934750111
 C        -6.9043293868        3.8799069389        2.3961992404
 C        -4.7354552413        3.4786642501        1.0912978953
 H        -9.0679891007        1.7929334090        1.0238536446
 H        -7.9315006842        1.7195159269        2.3803921337
 H        -8.0133692839        0.3109771926        1.4715069695
 H        -5.8091213442        3.8716082266       -1.6910816039
 H        -4.8084991620        5.1671370960       -0.9568639524
 H        -6.1042750685        6.8536314365       -1.3376059840
 H        -7.5289464197        5.9154742949       -1.9295295867
 H        -6.5753057842        4.4260932812       -6.7364139314
 H        -8.0422262320        5.3324900211       -6.7773673201
 H        -8.0316732923        2.5522976573       -5.4578561770
 H        -7.7238472951        2.5235327063       -7.0207239272
 H       -10.8594809542        5.0758811958       -5.8100780207
 H       -10.4474262196        5.6125897468       -4.2768481669
 H       -12.9678775490        3.9338144445       -3.9776759154
 H       -13.2504642858        5.2074143588       -5.3670935892
 H       -11.1676168616        3.2807166624       -0.6909227263
 H       -12.8054878880        2.8318918307       -1.1832120985
 H       -13.4571989844        3.8621522876        1.0401469867
 H       -11.7677118479        4.2351989686        1.3489134903
 H        -9.6689913507        2.1778088588        4.7740726068
 H       -10.1922583532        0.7476712871        3.9198100832
 H       -12.1064402167        0.4437043633        5.1997183203
 H       -11.9156139691        2.0590107508        6.0715922225
 H       -11.9696615211        0.3494733077       11.3903479515
 H       -11.1810873996        1.8966772114       10.9646807723
 H       -10.3126266116        0.2660572706       10.8647730250
 H       -12.4590054098       -1.5268082688        8.7030878599
 H       -11.6906182016       -2.0329529067        7.2342399259
 H       -12.7258397731       -0.6886156090        7.1375358178
 H        -9.9937925634       -1.3514454370        9.6666001581
 H        -8.8727831590       -0.3778902137        8.8449308639
 H        -9.6243041956       -1.8295778466        8.0771246456
 H       -14.2332381266        2.9604082944        2.9027274571
 H       -14.2554588412        1.5320153034        3.9734076413
 H       -14.8064855300        1.3358488298        2.3081779153
 H       -13.2827212425       -0.2934635630        3.4547959305
 H       -11.6840067890       -0.5033151140        2.8638669241
 H       -12.8376811452       -0.5318328511        1.7357640240
 H       -13.4816959046        6.6372707347       -0.0574769973
 H       -14.8751107646        7.2974033064       -1.1038374263
 H       -13.2763956072        7.7924246163       -1.3749437374
 H       -15.1622600469        4.3604098739       -1.2549883794
 H       -14.5968713370        4.0456478698       -2.9086679459
 H       -15.5856800864        5.4118180599       -2.7587486801
 H       -12.4365165024        3.1612413264       -6.7234782797
 H       -12.9965868697        1.8407501092       -5.7297609517
 H       -12.1036207274        1.3442122768       -7.1719018301
 H       -10.5071461177        0.3188344232       -6.1187355559
 H       -10.6653122297        0.5884649389       -4.3313255640
 H        -9.2394784582        0.9468149661       -5.1906481138
 H        -8.5848305685        7.0137293101       -3.5781136402
 H        -8.4511606894        7.7059674647       -5.0923559613
 H        -7.5991338794        8.4790372867       -3.6025952405
 H        -5.5388826263        8.1232126403       -5.4269809976
 H        -6.2284744447        7.0648970325       -6.6340782239
 H        -4.8161936774        6.6200269469       -5.8969057636
 H        -6.2372013231        4.6820588105        2.8336011383
 H        -7.0146896309        3.1188246351        3.1090593087
 H        -7.8590842538        4.3699808363        2.1492521308
 H        -4.4632270007        4.4703233257        1.3605047652
 H        -4.5030078387        3.2134171458        0.0372323563
 H        -4.2743484022        2.8118924661        1.8514155875
 Na       -9.0056307663        4.2662216866       -1.9545089810
