117

 C        -8.0937943916        1.2624226003        1.4402425700
 C        -6.7795104336        1.7043071587        0.8504844025
 O        -6.1211462134        1.0123653604        0.1246289368
 C        -6.2294733590        3.3803637471        1.0835434894
 C        -6.9065781695        4.2048369000       -0.0877865923
 O        -8.0820302857        4.4163568346        0.0143013094
 C        -5.9036098198        4.7978961794       -1.1723764440
 C        -6.2865927329        6.1238861880       -1.8708899754
 C        -5.7446534380        5.9849824101       -3.3257237124
 O        -4.7238735075        5.3666005345       -3.5783863724
 C        -6.7265680041        6.4622597486       -4.5444105458
 C        -7.5553693003        5.2533130491       -4.8992817356
 O        -8.2643176280        4.7434127722       -4.0326828722
 C        -7.6402856965        4.5679673948       -6.2947195448
 C        -8.2313242457        3.1026546625       -6.2368405614
 C        -9.7366249439        3.0368253312       -6.5681961533
 O       -10.1726326077        3.4433697247       -7.5603732621
 C       -10.7853726672        2.3649109362       -5.5991166842
 C       -10.7532242170        3.3183488115       -4.5178835263
 O       -10.2664663927        3.1194920562       -3.3652248802
 C       -11.3606125478        4.7556707357       -4.8525528932
 C       -12.7658126462        4.8396794212       -4.3517985920
 C       -12.9497412790        6.1652754501       -3.3716742467
 O       -12.7339076415        7.2978851924       -3.7523162428
 C       -13.4492004393        5.6204166925       -1.9389500034
 C       -12.0827778987        4.9756865767       -1.4827739474
 O       -11.0498114514        5.5825028767       -1.6842029694
 C       -12.1661284218        3.6195708349       -0.8321717421
 C       -12.2915978206        3.5705014294        0.6971622842
 C       -12.1592316303        2.0884597071        1.2205367411
 O       -11.3344777556        1.4154510719        0.6143879872
 C       -12.7667896279        1.5729990837        2.5890308004
 C       -11.7385358311        2.2435604044        3.4725934529
 O       -11.9429876696        3.4111134478        3.8189767117
 C       -10.7718664766        1.5364640802        4.3721304765
 C       -11.4659876387        1.1202101160        5.6970460580
 C       -10.5000838392        1.0210070730        6.9039857547
 O        -9.5251903433        1.6645168809        7.1428420477
 C       -11.1071614254        0.0014968506        8.1155365364
 C       -11.6190013143        1.0774309718        9.2044045173
 O       -12.3452729398        1.9545509353        8.8250398256
 C       -11.1766589036        0.9716548075       10.6516637690
 C       -12.2255696845       -1.0393700514        7.7386792740
 C        -9.8829217174       -0.9563569414        8.7017415578
 C       -14.1577723928        2.1224516773        2.9495561175
 C       -12.7581028379       -0.0048443913        2.5890322830
 C       -13.7199934563        7.0030409798       -1.1465634790
 C       -14.7437429500        4.8272070203       -1.9893681984
 C       -12.1873437807        2.4362666940       -6.2495487312
 C       -10.3373970753        0.9214753657       -5.1729844942
 C        -7.6351794194        7.6925094656       -4.3354799357
 C        -5.8259786570        6.9929512976       -5.6838120895
 C        -6.7488892824        3.9051814510        2.4379391089
 C        -4.7515467172        3.3933463788        1.0179321763
 H        -8.8064594534        2.0009971057        1.2124875368
 H        -7.9901756994        1.2297330755        2.5546804848
 H        -8.3079475417        0.2348740696        1.0997156698
 H        -5.5811607572        3.9896356281       -1.9472088316
 H        -5.0036715704        5.0568053788       -0.6464672851
 H        -5.8523638082        7.0224607763       -1.4658293584
 H        -7.3403528733        6.1328989356       -1.9276776932
 H        -6.5156766881        4.3827032091       -6.5991666325
 H        -8.0168030152        5.1735208718       -7.0691414327
 H        -8.0278625599        2.4625959091       -5.3216514028
 H        -7.7929711012        2.4836692691       -6.9287034472
 H       -11.1095267124        4.8842241591       -5.8728562229
 H       -10.5968837244        5.3349632059       -4.3690703779
 H       -13.0932796005        3.8613744164       -3.9496778565
 H       -13.2552790781        5.1412643044       -5.2450545140
 H       -11.3718352396        2.9369805674       -1.0003961440
 H       -13.1094075095        3.1475142454       -0.9944162371
 H       -13.2060187491        3.9527942974        1.0399642905
 H       -11.5370385871        4.0128705031        1.3827543302
 H       -10.0486049076        2.2062277282        4.7841608509
 H       -10.2217552831        0.6888858967        3.9120667484
 H       -11.9890508060        0.1427136632        5.4098236044
 H       -12.1435912864        1.7938168570        5.9803659735
 H       -12.0697072738        0.5197561018       11.0115972940
 H       -11.3019797295        2.0504815485       11.0082586838
 H       -10.4017644873        0.3511637216       11.0177638908
 H       -12.5456223827       -1.6370084572        8.5773810236
 H       -12.0951603942       -1.6627231813        6.9333935414
 H       -12.9980313680       -0.4349041307        7.4168388819
 H       -10.1786889445       -1.1270383278        9.6880003526
 H        -8.8566141282       -0.5974734063        8.8818036495
 H        -9.8260913327       -1.9367931827        8.2556917977
 H       -13.8704843579        3.1318715179        2.8383151063
 H       -14.5055767425        1.9173833745        3.9782032464
 H       -14.8304688239        1.7891175759        2.0859106205
 H       -13.5276847725       -0.5668324265        3.2664879547
 H       -11.7661295658       -0.4595712538        2.8759622642
 H       -12.8064848645       -0.5210237401        1.6097734106
 H       -14.0542026099        6.9241871668       -0.0932141230
 H       -14.4112143509        7.5442822690       -1.7653106292
 H       -12.8461834572        7.6381402369       -1.1559871988
 H       -15.1371994283        4.8848009903       -1.0172081599
 H       -14.6990895054        3.8049356240       -2.3241313123
 H       -15.3600371029        5.2297450003       -2.7121872339
 H       -12.5550181008        3.4932910996       -6.3451075484
 H       -12.9462256678        1.8697313416       -5.5902722142
 H       -12.1678215403        1.7431062004       -7.0926058111
 H       -10.3237807853        0.2268854960       -5.9748583815
 H       -10.9198034733        0.5598636077       -4.3850712214
 H        -9.1952724372        0.9998786363       -4.7773711005
 H        -8.3417789340        7.5234398500       -3.4907203873
 H        -8.3328502029        7.8779630712       -5.1832487327
 H        -7.0405906542        8.5001136111       -3.9977880346
 H        -5.6248768584        8.0379171011       -5.6476768109
 H        -6.1863601753        6.7485760477       -6.6447514214
 H        -4.8238658943        6.6253431757       -5.7431002314
 H        -6.2695605941        4.7224726151        2.7871321217
 H        -6.5733214495        3.0406984644        3.0703143548
 H        -7.8573164219        4.2126662891        2.3599262371
 H        -4.3568182569        4.4363495875        1.2432664823
 H        -4.4063644579        2.9912421200        0.0955741187
 H        -4.4758789614        2.7298803236        1.8389623898
 Na       -9.0734634391        4.2692581640       -1.9476531467
