117

 C        -8.1086887985        1.2971046467        1.4815325601
 C        -6.7406926125        1.8184752787        0.8681993518
 O        -6.0753231568        1.0031719487        0.2945661711
 C        -6.2161102839        3.2000578910        1.0686314648
 C        -6.9013756760        4.2104823197       -0.0212890405
 O        -8.1530241166        4.3291192981       -0.0001652565
 C        -6.0263592997        4.7401426670       -1.0722026885
 C        -6.2383283278        6.1187892881       -1.9682240149
 C        -5.7994373389        5.9369781102       -3.5386610940
 O        -4.8291023784        5.3720964819       -3.7672098060
 C        -6.6565702159        6.4787141842       -4.6870455918
 C        -7.6230212809        5.2254976285       -4.9920064791
 O        -8.4426312945        4.8600604904       -4.1728522793
 C        -7.6180518842        4.5004789315       -6.3307112540
 C        -8.1553806912        3.0881777408       -6.1628650745
 C        -9.7180598949        2.9211300306       -6.6279469515
 O       -10.1044452744        3.5213448837       -7.6296187955
 C       -10.7684713109        2.3163758604       -5.6099415085
 C       -10.7392468938        3.2881563970       -4.3655549426
 O       -10.2263598463        2.9151678305       -3.3463865391
 C       -11.4390390755        4.7898178883       -4.7388254499
 C       -12.9145505085        4.8739562797       -4.4050459352
 C       -13.0239748522        6.0925866416       -3.4495144717
 O       -12.6821688011        7.2013450455       -3.8261794982
 C       -13.2828181391        5.7479923182       -1.9906159104
 C       -12.0591967977        5.0814680928       -1.4382177141
 O       -10.9378665018        5.4916696280       -1.7478134717
 C       -12.1448135806        3.5829096721       -0.9112767291
 C       -12.2420443410        3.5458207262        0.7025641698
 C       -12.0382610281        2.0563233555        1.2723095818
 O       -11.2038770981        1.2969560742        0.8361812837
 C       -12.9016927400        1.6552479974        2.4776211216
 C       -11.9038888736        2.2800716990        3.7045466760
 O       -11.8579841016        3.5081604558        3.6541743249
 C       -10.8373979631        1.4077234494        4.4560252232
 C       -11.4108387684        1.0013374775        5.8691053902
 C       -10.5625540142        0.9440734233        7.0762032204
 O        -9.5312858617        1.6348223365        7.1745200744
 C       -11.1456686265        0.1556591701        8.1447204574
 C       -11.6463794138        1.1495407386        9.2435888480
 O       -12.4042191495        1.9797297568        8.7828755449
 C       -11.1432626423        1.1208503926       10.6311460203
 C       -12.4079113828       -0.6800178874        7.7531468249
 C       -10.0108402711       -0.7975250758        8.5848761404
 C       -14.2313709449        2.3536769775        2.7401015998
 C       -12.9019643461        0.0601912067        2.4531422178
 C       -13.5476838985        7.1126041333       -1.1355990752
 C       -14.5402883173        4.8759488869       -1.7730833019
 C       -12.1910873238        2.3341899687       -6.2111734791
 C       -10.4529543538        0.8566060455       -5.0266150802
 C        -7.4848144892        7.7687548691       -4.2342312868
 C        -5.6691354457        6.8139937545       -5.8679296741
 C        -6.6856422873        3.8119742826        2.4810901979
 C        -4.5792979853        3.0740884754        1.0465297706
 H        -8.7869867688        2.1001087134        1.6309914080
 H        -8.0318093223        0.7413025355        2.4929920487
 H        -8.4045184939        0.5373755916        0.7674428095
 H        -5.9381879483        3.9225251610       -1.7909765564
 H        -5.0434023436        4.8551192252       -0.6224381104
 H        -5.5136518374        6.9258231440       -1.8212839957
 H        -7.2800968588        6.4033182321       -1.7946256769
 H        -6.6448582977        4.5653071035       -6.7533510815
 H        -8.2737527170        4.9895098150       -7.1767361664
 H        -8.2323366097        2.6568656457       -5.1360540655
 H        -7.5985964982        2.1897567389       -6.6225960658
 H       -11.1026510740        4.7956621065       -5.7427102361
 H       -10.7105142282        5.4592036455       -4.2662862664
 H       -13.1088650802        4.0227569255       -3.8317808072
 H       -13.4319166852        4.9502506171       -5.3379108611
 H       -11.1884126938        3.1079961700       -0.9995797610
 H       -12.9715391095        2.8840943753       -1.2177258254
 H       -13.0835258710        4.0174021411        1.2459660421
 H       -11.3449918042        3.9503686250        1.0994140068
 H        -9.9376537569        1.9802125694        4.7009806684
 H       -10.5836520236        0.5513864252        3.7619963221
 H       -11.8659933194        0.0515050399        5.6307969006
 H       -12.2941767776        1.6425642177        6.1314663205
 H       -11.8258583350        0.3857549796       11.1626894799
 H       -11.3346536151        2.0698042656       11.0071610645
 H       -10.1905041719        0.6478929002       10.7146784121
 H       -12.5871913268       -1.4548201795        8.3945126217
 H       -12.4106359359       -1.0070478304        6.7403742137
 H       -13.2630880726       -0.0097778591        7.6916772288
 H       -10.2637172606       -1.2245313092        9.6092987386
 H        -9.1143025852       -0.2660522578        8.8886033825
 H        -9.7203037621       -1.5309460381        7.9051888030
 H       -13.9502011827        3.4234150542        2.8990632806
 H       -14.5112126229        1.9520358912        3.7669767509
 H       -14.9553941497        2.1072561354        1.9113635961
 H       -13.5673062790       -0.4664962753        3.1612653320
 H       -11.8502528850       -0.3690073192        2.7204945209
 H       -13.0557910595       -0.5224096373        1.5395266531
 H       -14.2975316688        6.9546424214       -0.4730534864
 H       -13.7960751979        7.8689491835       -1.8442917622
 H       -12.6697585911        7.5520059322       -0.5361574522
 H       -14.8772142466        5.1441172832       -0.8002642071
 H       -14.3818572195        3.8948457036       -1.9800291579
 H       -15.2638349865        5.1404968713       -2.5023805870
 H       -12.4871999107        3.4244024860       -6.3342388054
 H       -12.9493355611        1.8518082911       -5.6188386379
 H       -12.2146573360        1.6577463285       -7.0520443162
 H       -10.1959612456        0.1034690335       -5.8041117822
 H       -11.3586755036        0.5077301758       -4.5039083467
 H        -9.5995469680        0.8654317723       -4.3497024070
 H        -8.0335111925        7.5945051718       -3.3230191729
 H        -8.2332025390        8.0819554086       -4.9607311906
 H        -6.8086179351        8.5483378361       -3.9850203135
 H        -5.0699804491        7.6368483901       -5.9304564783
 H        -6.1265749020        6.5145436620       -6.8414907726
 H        -4.8809134656        6.0717280824       -5.8623437653
 H        -6.4210795544        4.8885897563        2.4589263930
 H        -6.0622048179        3.2742162360        3.2315295722
 H        -7.7111275798        3.8634487602        2.6645292627
 H        -4.1807697713        4.1191440392        1.0180570319
 H        -4.1433298857        2.3492045826        0.3654974185
 H        -4.4380722413        2.6418934030        2.0448681076
 Na       -9.2115968274        4.3926057555       -1.9053619533
