117

 C        -8.2165290554        1.6095165871        1.4888832428
 C        -6.7213884544        1.6822429779        0.9620975444
 O        -6.1270997422        0.8160086044        0.4040120622
 C        -6.0169925918        3.1611390194        0.9931190060
 C        -6.6076974712        3.9215037309       -0.1565406022
 O        -7.7833631063        4.1626448853       -0.1513769249
 C        -5.7594535939        4.2720788467       -1.3065479613
 C        -6.4032934738        5.3668290755       -2.1514707384
 C        -5.6963425174        5.4660427793       -3.6216985945
 O        -4.6759545814        4.9680042565       -3.8269094148
 C        -6.5688045544        6.2747536708       -4.8044361323
 C        -7.7032287289        5.2813259925       -5.0298969568
 O        -8.7248333067        5.2863299846       -4.3362712713
 C        -7.6420442492        4.2415524186       -6.1558647373
 C        -8.2727476415        2.8841982936       -5.8339567215
 C        -9.7504279124        2.8191465805       -6.5234406385
 O       -10.0408922546        3.3824136837       -7.5466328568
 C       -10.8066110666        2.1201770712       -5.6445818083
 C       -10.8525547342        3.0946111960       -4.4688390625
 O       -10.2914941788        2.8185846668       -3.3281446563
 C       -11.5124386705        4.4794918179       -4.6880296418
 C       -12.9731485492        4.6769370151       -4.2432250905
 C       -13.1950142980        6.0252850625       -3.3970717227
 O       -13.1123053305        7.1643442193       -3.8146705022
 C       -13.2223045693        5.8800064734       -1.8038149205
 C       -11.8322524738        5.0426343639       -1.3473504919
 O       -10.8456288394        5.7648688874       -1.2920755339
 C       -11.9151666170        3.5936701543       -0.9005508135
 C       -12.0398918220        3.6248551527        0.5643338016
 C       -11.9650307125        2.1858414073        1.1404319923
 O       -11.0623384335        1.4308921291        0.8478823628
 C       -12.8893730444        1.9201685258        2.4490518000
 C       -11.9497498493        2.5006024678        3.5028689687
 O       -11.8554825015        3.7349724321        3.6432298910
 C       -11.1336760901        1.5817373260        4.4577298306
 C       -11.9168386799        1.0789190765        5.6736665694
 C       -10.9002906156        0.8889575418        6.9114169266
 O        -9.7221392618        1.2320348017        6.7969117503
 C       -11.3777686288        0.2749928623        8.3795813618
 C       -11.7904951312        1.4756615345        9.4245935942
 O       -12.5789362376        2.3105546157        9.0881523438
 C       -10.8572247598        1.6457081771       10.7023294698
 C       -12.7969912614       -0.5613794181        8.1910577958
 C       -10.3446006780       -0.5755008814        8.9340991856
 C       -14.1799065054        2.8280021973        2.3398962421
 C       -13.1419699326        0.4789957662        2.6906764104
 C       -13.1545721805        7.2931409662       -1.1036106639
 C       -14.5892344995        5.2113445324       -1.4609944559
 C       -12.0725626878        2.0867506765       -6.4825543859
 C       -10.2385457032        0.7427180619       -5.2411710090
 C        -7.1762363122        7.6289256388       -4.3771816613
 C        -5.6134840534        6.4779244564       -5.9678053732
 C        -6.3376902898        3.8710742882        2.4103732001
 C        -4.3875952777        3.1293450060        1.0551924289
 H        -8.6288449491        2.5000461268        1.7541277051
 H        -8.2161047097        0.9290931531        2.4006275062
 H        -8.7356061683        1.0186912178        0.7578002353
 H        -5.6197216730        3.2852208950       -1.9093814179
 H        -4.7773496736        4.6348931129       -1.0339360240
 H        -6.3478627363        6.2716613275       -1.5383441679
 H        -7.4226252630        5.1490062959       -2.4279149768
 H        -6.5649412202        3.9881756884       -6.3652688342
 H        -7.9270266952        4.7571483297       -7.0347840697
 H        -8.2948215017        2.5959889621       -4.7748286489
 H        -7.7811043198        2.0718238895       -6.2780585822
 H       -11.4315775342        4.9162285435       -5.6921475502
 H       -10.8652573830        5.1305660224       -4.0243724036
 H       -13.3713206036        3.8098236378       -3.6108825704
 H       -13.5015110825        4.7716473933       -5.2008570468
 H       -11.0907510391        3.0970328732       -1.3371680731
 H       -12.8406890555        3.1650128875       -1.3012868067
 H       -12.9314966314        4.0511797761        0.9364687719
 H       -11.1191335362        4.2425116471        0.7372773683
 H       -10.3121346179        2.1546852369        4.7946133409
 H       -10.8360650673        0.7055082523        3.8675886616
 H       -12.6026009295        0.3252968911        5.2660956904
 H       -12.6190277520        1.7630437250        5.9093441099
 H       -10.5053698977        0.6215120534       10.8793886540
 H       -11.5239471297        1.9281646025       11.5213634489
 H        -9.9369378195        2.2167373945       10.6056950855
 H       -13.3250261308       -0.4332393027        9.1220262856
 H       -12.6259160758       -1.6151502750        7.9216855978
 H       -13.4391418950       -0.1460607545        7.3746867485
 H       -10.6436267484       -1.1522398206        9.8255467537
 H        -9.3797398751       -0.1624379899        9.3077849065
 H       -10.0501318019       -1.2713452687        8.1650433228
 H       -14.0895431865        3.8001640099        2.6695424360
 H       -14.7595340900        2.3921139291        3.0932570308
 H       -14.4445220063        2.7202924372        1.3022168418
 H       -13.2758500809        0.0854004665        3.7196314724
 H       -12.2696014743       -0.0672236459        2.2938326740
 H       -14.0056914440       -0.0286349882        2.3180406423
 H       -13.8604500936        8.0198249100       -1.4108261895
 H       -12.1170008994        7.6403182066       -1.2195953092
 H       -13.3152058050        7.1054996913        0.0266834833
 H       -14.3730400114        4.5414902764       -0.6106502800
 H       -15.1638991683        4.8623636205       -2.3243180665
 H       -15.1314044956        6.0072519631       -0.9169100838
 H       -12.1940595487        2.8480119080       -7.3391814859
 H       -13.0299753595        2.1116643360       -5.9325853841
 H       -12.1444393809        1.0662122475       -6.8164200355
 H       -10.0413439169        0.1135906554       -6.1045606149
 H       -10.9355094665        0.2172299602       -4.6409162901
 H        -9.2774769849        0.8636321997       -4.7161558199
 H        -8.0807557182        7.5536317279       -3.7081758366
 H        -7.2890414936        8.2282678951       -5.3320371398
 H        -6.4411770456        8.2605655437       -3.8846124308
 H        -4.7999826214        7.0210172217       -5.7294237261
 H        -6.1327085409        6.9056887716       -6.8502966813
 H        -5.0942859340        5.6335930023       -6.3618019151
 H        -5.9906383464        4.8586247360        2.4798311318
 H        -5.8671187280        3.2650464160        3.2097655809
 H        -7.4011657900        4.0361568833        2.4751202580
 H        -4.2075894776        4.1945376853        1.3358299421
 H        -3.9435646770        2.9461812798        0.1317404481
 H        -4.0467493224        2.2986749603        1.5871769990
 Na       -9.1019618018        4.5560583678       -2.0926106636
