117

 C        -7.8831019152        1.6972791779        1.7544125723
 C        -6.5331927571        1.6938305428        1.1159995822
 O        -6.0921572479        0.6976098693        0.5944744346
 C        -5.7479131275        3.0992677667        0.8705545454
 C        -6.2239319632        3.5575743505       -0.5444563044
 O        -7.4107479523        3.8327637833       -0.7019901703
 C        -5.2097176592        3.7796984809       -1.7656993521
 C        -5.2704530273        5.1756745192       -2.5064736504
 C        -5.1473158478        5.0981116857       -4.0083002435
 O        -4.3745221084        4.2795295345       -4.5340952000
 C        -6.1627956518        5.8475345521       -4.9692897365
 C        -7.3330460729        4.9219335359       -5.0591345865
 O        -8.2014403398        4.9647254486       -4.2070475887
 C        -7.2240487955        3.8622996249       -6.1504305152
 C        -8.1363538257        2.7152329433       -5.9454530679
 C        -9.5588137313        2.8763579268       -6.4740041158
 O        -9.7764925680        3.4228522567       -7.5092515254
 C       -10.8071789384        2.2088870263       -5.7166352560
 C       -11.2082822807        3.1520050467       -4.6029833590
 O       -10.5765385533        3.0074284039       -3.5141850273
 C       -12.0387148920        4.3371893811       -4.8381653667
 C       -13.2186560406        4.2589132007       -3.6483107208
 C       -13.5467906783        5.7735045703       -3.1044975623
 O       -13.9003333662        6.5907709614       -3.9009255160
 C       -13.1337363140        6.1996555233       -1.5760943295
 C       -11.8715589822        5.4520960496       -1.1608604905
 O       -10.8956639631        5.6994092234       -1.8020310567
 C       -11.9826460897        4.1191533555       -0.3928829151
 C       -11.5393566276        3.9539399423        1.0988210797
 C       -12.1704091163        2.2940804634        1.3489893098
 O       -11.8521294261        1.4988822299        0.5110292536
 C       -13.0804998208        2.1538302050        2.7273733806
 C       -12.4008499775        2.8775453364        3.9082108227
 O       -12.2762113347        4.0467249866        3.9810236905
 C       -11.4852150374        1.9853179440        4.8454318112
 C       -12.0615882393        1.8078063668        6.3066881729
 C       -11.3070136847        0.7390529494        7.1812055913
 O       -10.2916214982        0.2009212170        6.8314671995
 C       -11.8402478081        0.5368884480        8.6635254478
 C       -11.8955829412        1.9533437698        9.2059641240
 O       -12.8152323433        2.7311272054        8.9664584991
 C       -10.5358170236        2.4938222365        9.9276079451
 C       -13.2714815088       -0.1267000193        8.6761997329
 C       -10.7834086975       -0.3971453872        9.3821148164
 C       -14.3990867176        2.9345017502        2.3110494828
 C       -13.3435672724        0.5972596313        2.9471987593
 C       -13.0835125235        7.8160379957       -1.6461815908
 C       -14.4414918812        5.9176035810       -0.6945371947
 C       -11.8065112945        1.8244574170       -6.8662059053
 C       -10.5085673561        0.8687983603       -5.0472335395
 C        -6.6555533194        7.1449538468       -4.2841165470
 C        -5.3157202388        6.0417752608       -6.2022193605
 C        -6.3542432968        4.0734231310        1.8569148150
 C        -4.2699038597        2.7603404063        1.0479638520
 H        -8.5950503085        1.8679088539        0.8726287699
 H        -8.0384817365        2.4946741134        2.3739948574
 H        -8.0308507542        0.7289768839        2.1918625577
 H        -5.2978417205        3.0371394238       -2.6021376582
 H        -4.2480955287        3.4858086975       -1.2049639723
 H        -4.4957877135        5.7264693402       -2.0505099638
 H        -6.2224373180        5.7002238665       -2.3621304475
 H        -6.2468450723        3.5921078173       -6.1872034142
 H        -7.5129966569        4.2774570561       -7.1808254381
 H        -8.3672583344        2.5602758149       -4.9287453612
 H        -7.6943064659        1.7711126285       -6.4753486962
 H       -12.6892259674        4.2962669266       -5.6900711417
 H       -11.5151690577        5.2751751424       -4.7138910202
 H       -12.7036540999        3.6804707791       -2.8835789867
 H       -14.0771806940        3.5940447278       -4.0042995827
 H       -11.3386381162        3.4007776524       -0.9104247508
 H       -12.9604480616        3.6520904607       -0.4715834189
 H       -12.1846934276        4.5376844722        1.7871969097
 H       -10.4919380291        3.9386103681        1.3090509315
 H       -10.4943639360        2.4033570235        4.9724132460
 H       -11.4296567809        0.9998873895        4.4086610017
 H       -13.0404678849        1.5881219843        6.3031444016
 H       -12.0833095091        2.8095838818        6.7771562633
 H       -10.0533183074        1.7193864658       10.5376321349
 H       -10.7826423269        3.2515723562       10.6720474296
 H        -9.7796212046        2.9126624096        9.2122179983
 H       -13.2556702391       -0.9297308378        9.4266678897
 H       -13.2421796947       -0.7472778183        7.7591849473
 H       -14.1936198144        0.4711607835        8.9137354022
 H       -11.0129942806       -0.7441193050       10.4113409095
 H        -9.8193579490        0.1005281300        9.3528091390
 H       -10.4328100156       -1.3262818361        8.9014542603
 H       -14.0759389613        3.9808740717        2.2896205340
 H       -15.1337639027        2.7318882093        3.1094172229
 H       -14.6558335286        2.6227606695        1.3541085259
 H       -13.9796124569        0.4357345007        3.8017119939
 H       -12.5947040137       -0.1929949062        3.1702671171
 H       -14.0421356208        0.2235969999        2.1393102855
 H       -12.2382573775        8.2771889442       -1.0222848560
 H       -14.0276892089        8.2567224873       -1.3030356913
 H       -12.9854543184        8.0654339632       -2.6794038142
 H       -14.4557760943        6.6785250634        0.1120959244
 H       -14.1187087410        4.9844706673       -0.2473561359
 H       -15.3944488695        5.9826618317       -1.2677661793
 H       -12.0664238633        2.6838048387       -7.4560018411
 H       -12.7725125750        1.3914256945       -6.6596953616
 H       -11.2324044695        1.4139945945       -7.7164178961
 H        -9.9397593224        0.3346016769       -5.7318783577
 H       -11.3595260634        0.2952594568       -4.7763346625
 H        -9.9036191698        0.9589522679       -4.0590550914
 H        -7.4797033628        6.9059317111       -3.5821180693
 H        -7.1120602991        7.8794518078       -4.9713430317
 H        -5.7353312364        7.6865028523       -3.8383062651
 H        -4.4489291362        6.7227745125       -6.2527109689
 H        -5.8734014532        6.4934558609       -6.9191852956
 H        -4.9938292559        5.1341399861       -6.5956364777
 H        -5.7888973201        5.0386728836        1.7345459538
 H        -6.0237636851        3.7701329566        2.7808078776
 H        -7.4337747514        4.2256796733        1.9576248460
 H        -3.7935820029        3.6855547832        1.1989096434
 H        -3.8823591402        2.1468276482        0.1786548456
 H        -4.1671213898        2.2250755555        2.0219194249
 Na       -9.0811081778        4.4883137103       -2.2923626267
