117

 C        -7.8825427217        1.5469503517        1.8206485593
 C        -6.5048201145        1.5942209069        1.1037270515
 O        -5.9822474481        0.5881412384        0.6419162965
 C        -5.8189865522        3.0756692170        0.7573624575
 C        -6.1156792384        3.4696327643       -0.7308921096
 O        -7.2235817590        3.8577836366       -1.1084009055
 C        -5.0213175860        3.4711958774       -1.8076524670
 C        -5.0861643185        4.8791471871       -2.5405087718
 C        -4.9417413727        4.8491930605       -4.0829876036
 O        -4.3241506682        3.9858252916       -4.6117569115
 C        -5.9735646303        5.7048758215       -5.0812025284
 C        -7.0642662576        4.6697072273       -5.0709733365
 O        -8.0470028713        4.6746471346       -4.3006677565
 C        -7.1152377401        3.5860267124       -6.2070028792
 C        -8.0862656770        2.4460829097       -5.8161102823
 C        -9.4682190153        2.7669505626       -6.4861672411
 O        -9.5706899455        3.6603683404       -7.3178535686
 C       -10.8257281577        2.2126627858       -5.7707657338
 C       -11.2020956820        3.0780575472       -4.5292073320
 O       -10.5808311805        3.1331425146       -3.4896764928
 C       -12.4676140230        4.0358348704       -4.7763831048
 C       -13.2342136306        4.2351276191       -3.4821014679
 C       -13.7180137768        5.6784293971       -3.1196727579
 O       -14.3562552876        6.4374737154       -3.8382311804
 C       -13.1539692700        6.3986463048       -1.5282955050
 C       -11.9519734444        5.4717934078       -1.2235581175
 O       -10.8578234026        5.8912389595       -1.6976147245
 C       -11.9941792313        3.9879060028       -0.5649141762
 C       -11.8691267337        3.9342745496        0.9350194418
 C       -12.2978682129        2.4795938870        1.4957568730
 O       -11.9155952969        1.5089366155        0.9291692838
 C       -13.1842434534        2.2321625228        2.9270691348
 C       -12.3517917065        2.8931039620        4.0667713763
 O       -12.5892759218        4.0976432176        4.3712772794
 C       -11.4588665368        2.0151627371        4.8120254704
 C       -12.0409951939        1.8433536542        6.2382900452
 C       -11.4458311737        0.7817415689        7.1430578455
 O       -10.6682389054       -0.0739094755        6.6912559151
 C       -11.8005124632        0.7812645597        8.7198151974
 C       -11.8522848010        2.2723632848        9.2174904818
 O       -12.9219674318        2.8397257732        9.2948827136
 C       -10.4972120147        2.8018410325        9.6886357812
 C       -13.4221927364        0.1835886082        8.5293250675
 C       -11.1171443705       -0.1525844179        9.5936710590
 C       -14.4921226574        3.0338712002        2.5556777158
 C       -13.4184461586        0.7505462988        3.0066762154
 C       -12.7277840933        7.9167709110       -1.8111491756
 C       -14.3433749379        6.1672056780       -0.6393468281
 C       -12.0071803273        2.1769110816       -6.7836098876
 C       -10.2968916696        0.7940697395       -5.3265701587
 C        -6.3340973724        7.1025640262       -4.4598152609
 C        -5.3156917776        6.0937560563       -6.4168663198
 C        -6.1523369413        4.3200089281        1.6329923880
 C        -4.3038621911        2.7873509415        1.0266991534
 H        -8.6095722232        2.0795874673        1.2585402706
 H        -7.8187152890        1.9852876891        2.9116051215
 H        -8.0657347099        0.4737975097        1.7635781121
 H        -5.3496602915        2.6301930458       -2.4055926340
 H        -4.1556390059        3.1513737715       -1.3899496561
 H        -4.1548874901        5.3180491309       -2.0558222723
 H        -5.9541566605        5.4816343778       -2.2268269401
 H        -5.9904465247        3.2285271610       -6.3337187200
 H        -7.3864137481        4.1410720306       -7.0844594313
 H        -8.1467637274        2.6275295806       -4.6798164640
 H        -7.8958361652        1.4349886217       -6.0987150135
 H       -13.3081053448        3.7968000366       -5.3895972731
 H       -11.9936584290        5.0084988715       -4.9670586335
 H       -12.6132087625        3.7422714361       -2.7318069063
 H       -14.0631867662        3.5834546602       -3.5562222078
 H       -11.3661811594        3.0897975817       -0.8279435437
 H       -13.0352519772        3.5750847751       -0.7973992445
 H       -12.3613561023        4.7069206502        1.4763213362
 H       -10.8219604285        3.7889035623        1.2811516404
 H       -10.4391538324        2.4478718963        5.0110637956
 H       -11.1755235299        1.0209037108        4.3787370800
 H       -13.2223992734        1.6012347281        6.2757785391
 H       -11.9474473398        2.8398177971        6.7338646799
 H       -10.4554770235        2.7983559520       10.8017393807
 H       -10.3251986295        3.8178277667        9.4163203402
 H        -9.7490790479        2.2151308353        9.2046541285
 H       -14.0956105143        0.3018293322        9.3207592696
 H       -13.3911891860       -0.8345948816        8.2841929484
 H       -13.7627848044        0.7758495334        7.7049067709
 H       -11.2094399126        0.0178994036       10.6460498254
 H       -10.0911136754       -0.3122258459        9.3520801839
 H       -11.4594444167       -1.1443131833        9.4967464083
 H       -14.2688275057        4.0943353285        2.5822440131
 H       -15.2414933234        2.5955919728        3.2128384333
 H       -14.8386620325        2.6103900142        1.5349780039
 H       -13.5106085528        0.1970462669        3.9972801122
 H       -12.4415025223        0.3513843698        2.7470580356
 H       -14.0920059702        0.2522071565        2.3716061439
 H       -13.0670125964        8.4608191248       -1.0364759043
 H       -13.1806103060        8.3496925785       -2.7109970432
 H       -11.6102448135        7.9517154277       -1.8930056156
 H       -14.0996748332        6.2738172145        0.4121405260
 H       -14.6511828286        5.1546465323       -0.6763629270
 H       -15.0816751016        6.8328302199       -1.0066807923
 H       -12.2043261448        3.0071442805       -7.5044338119
 H       -12.9559321329        2.0483760061       -6.2695761982
 H       -11.9041786974        1.4395159625       -7.5182988065
 H        -9.7896093122        0.2221624228       -6.1961157475
 H       -11.0360497094        0.1287197794       -4.8099368202
 H        -9.6403949253        0.9667892035       -4.6144442878
 H        -6.9825946280        7.0797651191       -3.5970645660
 H        -7.0165005930        7.5799713039       -5.1858691332
 H        -5.4779935909        7.6864960605       -4.3671642186
 H        -4.3236488203        6.4427567268       -6.2801667492
 H        -5.7057301337        6.9772643795       -7.0402826955
 H        -5.1944164809        5.1927839546       -7.0490997277
 H        -5.5860758902        5.1282012281        1.2027846066
 H        -6.0006078178        4.3338884321        2.7801096439
 H        -7.2013278488        4.4821275680        1.5493004678
 H        -3.6247342306        3.6363939376        0.7186480616
 H        -4.1371219672        2.0552822200        0.2908290317
 H        -4.0714156836        2.5724107613        2.0474640256
 Na       -8.9365920304        4.4936377884       -2.2600702097
