117

 C        -7.8445309772        1.5609305712        1.8134733523
 C        -6.4900341257        1.6313177711        1.0878157949
 O        -5.9767689165        0.6217335005        0.6476894399
 C        -5.8103348912        3.0124216482        0.6387569638
 C        -6.0991199989        3.3257468148       -0.8545115894
 O        -7.1705793446        3.8130953647       -1.0455480574
 C        -4.9394008881        3.4620890307       -1.9861504391
 C        -4.9936508734        4.8748811875       -2.6460433810
 C        -4.9058538063        4.6910974392       -4.1519438568
 O        -4.2092920204        3.7832971298       -4.6613662382
 C        -5.7472221773        5.5948319686       -5.0752675851
 C        -7.0245671076        4.6616406874       -5.2575301166
 O        -7.8508843721        4.7406860428       -4.3722828808
 C        -6.9672357483        3.3730522282       -6.1430181687
 C        -8.1144833167        2.3982074678       -5.8934406053
 C        -9.4849644510        2.9641385482       -6.3274733269
 O        -9.6656220985        3.7239609625       -7.2618885569
 C       -10.8314370267        2.1958497311       -5.7110043550
 C       -11.2882464625        3.1190179655       -4.6177193918
 O       -10.5666866368        3.1552609103       -3.5843450354
 C       -12.4918219220        4.0343362837       -4.7671289242
 C       -13.3609293591        4.2059917208       -3.4103130882
 C       -13.6503889018        5.6855427513       -3.0485183429
 O       -14.4819879806        6.2517570022       -3.6750993890
 C       -13.1835850367        6.3245117619       -1.6862801506
 C       -11.9180759957        5.4176566949       -1.2000827186
 O       -10.7541399471        5.7705497437       -1.4260136548
 C       -12.0447570518        4.0452105051       -0.6128307876
 C       -12.0551466624        4.0163575949        0.9613388312
 C       -12.2527099610        2.5451577884        1.5534351516
 O       -11.8068525626        1.6015328302        0.9761722941
 C       -13.1844452922        2.3083069824        2.7792895981
 C       -12.4751314233        2.9637879377        4.1053229468
 O       -12.6763222527        4.0768016915        4.4808830169
 C       -11.4686382992        2.0986297538        4.7939034922
 C       -12.0167311320        1.9044796547        6.1558860511
 C       -11.4847628992        0.7895916748        7.1070424881
 O       -10.8508314554       -0.1517191759        6.7102703051
 C       -11.9685160412        0.8242435837        8.5538949756
 C       -11.8977643194        2.2705327036        9.2214919701
 O       -12.8914492570        2.9037847362        9.5063194723
 C       -10.5438414435        2.9509590280        9.5726526334
 C       -13.5086052623        0.4369232894        8.6073214876
 C       -11.2009529575       -0.0518812388        9.6043858061
 C       -14.6013918341        3.2566525833        2.8354720701
 C       -13.3708057225        0.7807738903        3.0783398062
 C       -12.5858241818        7.7178099288       -1.8108798681
 C       -14.3410625408        6.3024919225       -0.6571172287
 C       -11.8270626907        2.1365202207       -6.8825759354
 C       -10.4778694676        0.7175819665       -5.3874278586
 C        -6.2027861785        6.9025604965       -4.3317561504
 C        -5.2507139952        6.0135369203       -6.4642689064
 C        -6.1678527084        4.2423596083        1.5239834917
 C        -4.2072419115        2.9161355057        0.9434650420
 H        -8.5325676370        2.4320631764        1.5845338173
 H        -7.5624245819        1.6237703052        2.8475951876
 H        -8.2631782361        0.6396469883        1.5232826818
 H        -5.1461400401        2.6121485610       -2.5825560095
 H        -4.0491712978        3.1399871464       -1.4320294640
 H        -4.2331760732        5.4934535628       -2.1592202094
 H        -5.9951342663        5.2836465652       -2.4194443741
 H        -6.0972195204        2.9164355181       -5.8526942611
 H        -6.8173067154        3.7603227757       -7.1651582601
 H        -7.9923330000        2.1353650304       -4.9292910661
 H        -8.1612868287        1.5479947671       -6.6257017000
 H       -13.2567095063        3.6820811237       -5.4313988838
 H       -12.1645157883        5.0579330541       -4.9491478847
 H       -12.9540588708        3.4107401197       -2.7792242504
 H       -14.3863883683        3.8115913029       -3.6514915301
 H       -11.3091195106        3.2862633074       -0.7857696400
 H       -13.0033432314        3.5850618541       -1.0462070646
 H       -12.9580842096        4.5951000842        1.3557845893
 H       -11.1249672507        4.4562483618        1.4228813682
 H       -10.4419333333        2.5283958044        4.6970765792
 H       -11.2730466061        1.0176815530        4.5384116971
 H       -12.9893499178        1.5653649732        6.0170093014
 H       -12.1051857533        2.8707429705        6.7592303718
 H       -10.8356087654        3.4975992130       10.4758266386
 H       -10.3859754390        3.7120786452        8.8577822899
 H        -9.5719992641        2.4374108488        9.6264742167
 H       -13.7754251696        1.0889603667        9.3773707000
 H       -13.8355146208       -0.5771222291        8.8208171351
 H       -13.9911664110        0.9204969979        7.6934593478
 H       -11.3014163143        0.2496641531       10.6765693659
 H       -10.1800793232       -0.2126455855        9.3844971018
 H       -11.5597803699       -1.0590405976        9.6546871048
 H       -14.1843503539        4.3156748463        2.8910965486
 H       -15.1409894736        2.8066181689        3.7036807302
 H       -15.2733923139        3.0189753305        2.0125205837
 H       -13.6175991217        0.4247456137        4.0481780406
 H       -12.4336073982        0.1922531021        2.9401540586
 H       -14.0047518300        0.2799471377        2.3419160461
 H       -13.3836606066        8.3840809579       -1.4613861475
 H       -12.3413084702        8.0809010611       -2.7960621437
 H       -11.7238657806        7.7920410007       -1.1634114472
 H       -14.0133931237        6.1204462371        0.3733883884
 H       -15.1211871823        5.5401197628       -0.8150373010
 H       -14.7730107483        7.2732150205       -0.9395646938
 H       -12.0735891784        2.9924275581       -7.4701705021
 H       -12.7751708932        1.8326442291       -6.4801016059
 H       -11.6479572106        1.4087508430       -7.6696443391
 H       -10.1410852710        0.1875621135       -6.2534903730
 H       -11.4224285354        0.2833929938       -5.0509508711
 H        -9.7574949829        0.5911127689       -4.4834199872
 H        -6.5781933681        6.7810725884       -3.3778364860
 H        -7.0475000526        7.2616378254       -4.8526259715
 H        -5.3904801225        7.6070282180       -4.3268164243
 H        -4.2520089341        6.6779035737       -6.4603794257
 H        -5.8663608564        6.6331524600       -7.1276874609
 H        -4.9102540073        5.0490828819       -6.9643353465
 H        -5.3593083635        5.0552650532        1.3173404888
 H        -6.3269878961        4.1060247587        2.5797613865
 H        -7.1308509999        4.5672410363        1.2440359593
 H        -3.5579841520        3.5688635106        0.3724156960
 H        -3.9920954910        1.9505692992        0.4322124592
 H        -3.9831358068        3.0625830906        1.9973778537
 Na       -9.0217412608        4.4949321660       -2.2283594313
