117

 C       -12.9307935853       -2.0559304407       -7.0251480968
 C       -11.5444399997       -2.5167922813       -6.6053695559
 O       -11.1690873684       -3.6746841307       -6.6101557121
 C       -10.5564537592       -1.3909241474       -6.0035993812
 C       -11.2800534841       -0.9583508430       -4.4964087584
 O       -11.7043492449        0.1592050313       -4.4399542805
 C       -11.4569429998       -1.9867305892       -3.4314679956
 C       -12.0930071222       -1.3632820619       -2.1079358703
 C       -11.5892370106       -2.0768515837       -0.7949169627
 O       -11.8112678495       -3.2583857934       -0.5205098720
 C       -10.5952179631       -1.2871353265        0.1625708360
 C       -11.3932059524       -0.1465389144        1.0084037271
 O       -12.5797778167        0.0413203701        0.8830490048
 C       -10.6018403133        0.3208762022        2.2672461205
 C       -11.3871227781        1.1058077811        3.3290193202
 C       -11.2000216864        2.6782677191        3.2524834846
 O       -10.3132171585        3.0817406036        2.6236672793
 C       -12.1852295815        3.5933592618        4.1505901284
 C       -12.0216988181        5.1034361268        3.7654158917
 O       -10.9431446490        5.6434174650        3.7281049059
 C       -13.1777360673        5.9956842017        3.2975396260
 C       -13.5844047711        5.6868908133        1.7856621973
 C       -12.3067751828        5.8175954877        0.8438832836
 O       -11.5048119855        4.9389843565        0.7064681535
 C       -12.1147790440        7.0695052765       -0.0494743791
 C       -10.5419927691        7.4657903749       -0.1034591298
 O        -9.6349178615        7.2607260627        0.7050942622
 C       -10.0919785552        8.1678501709       -1.4370354856
 C        -8.5553184308        8.4069414965       -1.7969371173
 C        -7.7973002288        9.2850535442       -0.6863344815
 O        -8.4600796202        9.5419450426        0.3287269105
 C        -6.2386889960        9.3963941127       -0.8215793807
 C        -5.7208648278        8.1982924632        0.1697072994
 O        -5.1152900016        7.2535104670       -0.3165727513
 C        -5.9414479604        8.4053272873        1.6975764566
 C        -5.4672292068        7.0844033020        2.4037730400
 C        -6.4623138520        5.8968147741        2.2954688069
 O        -7.6438681124        5.9755335025        2.5289371777
 C        -5.9428516865        4.3815249741        2.1837978590
 C        -6.4095241249        4.1776135146        0.6729674601
 O        -7.5410879950        4.3238282443        0.1897078400
 C        -5.3264458400        3.9195623989       -0.3300824435
 C        -4.4815245332        4.1335385277        2.4556931226
 C        -6.7589291018        3.4151029859        3.1177925255
 C        -5.7152106290        9.1801911015       -2.2275806851
 C        -5.7166231183       10.8369228891       -0.3171179489
 C       -12.8828844003        6.7193180160       -1.3972468066
 C       -12.9327686826        8.3692535178        0.4226883663
 C       -13.6316810956        3.0116409838        3.8241947713
 C       -11.9167309870        3.4867156536        5.7054678409
 C        -9.7757820869       -2.3032077860        1.1058477693
 C        -9.4678794438       -0.6143891124       -0.8206783552
 C        -9.2102349292       -2.0999403293       -5.7969412857
 C       -10.4127178657       -0.1653145402       -6.8360501698
 H       -13.4251378388       -2.9198791787       -7.0409338110
 H       -12.7837647779       -1.6559350341       -8.0469782977
 H       -13.3050759520       -1.2603568157       -6.4388851361
 H       -10.5013589312       -2.1978130980       -3.1735250684
 H       -11.9767323388       -2.8645636135       -3.9304282479
 H       -13.2057689305       -1.2675311293       -2.1331869233
 H       -11.7388457848       -0.2904818795       -2.0932953044
 H        -9.6194578608        0.7713875439        2.0426365507
 H       -10.1922155227       -0.5522247837        2.7866945148
 H       -11.2861675049        0.6748491231        4.2742232539
 H       -12.4677416743        0.8760580347        3.1343248964
 H       -12.7656373184        7.0494469385        3.3886866167
 H       -14.0477621844        5.8152726826        3.8807463267
 H       -14.2939591963        6.4763600624        1.5216006398
 H       -14.0405565975        4.6705445446        1.5386553639
 H       -10.5853392771        9.1346667525       -1.4066174472
 H       -10.5733115280        7.5877297335       -2.2278320545
 H        -8.5451590439        8.9166098749       -2.7809867073
 H        -8.0991144372        7.3901776738       -1.9024274925
 H        -7.0540781994        8.5435510596        1.7241133788
 H        -5.3945522327        9.2538277498        2.0993147696
 H        -5.3849776535        7.2363213834        3.4348365645
 H        -4.5056835066        6.8094415765        2.0208056106
 H        -5.2917976621        4.8606759939       -0.9023770375
 H        -5.7169941934        3.1844454897       -1.1048466249
 H        -4.3008739286        3.5370360490       -0.1063155205
 H        -4.2150293973        4.4701534444        3.3545766025
 H        -3.8519418941        4.6311192834        1.6583059876
 H        -4.1818228173        3.0681678171        2.3945043939
 H        -7.8222835872        3.4981663530        2.9853112786
 H        -6.4710558070        3.6418743412        4.1877762035
 H        -6.3783161878        2.4269896025        3.0286301764
 H        -6.0699309094        9.9048458989       -2.9390880750
 H        -5.9145679426        8.2100475600       -2.5345907955
 H        -4.6433563478        9.4713097847       -2.2921908465
 H        -4.6974218671       10.8077584696        0.0764888451
 H        -6.3357803132       11.2075811907        0.4483869753
 H        -5.7010457409       11.6003138554       -1.1008375688
 H       -13.8953983466        6.3608333985       -1.1915670671
 H       -12.3547346656        5.9915436847       -2.0287077349
 H       -12.8878967370        7.6310966700       -2.0086295267
 H       -12.5979466246        8.8052565557        1.3752984808
 H       -14.0531466893        8.2853822277        0.4152455559
 H       -12.8676298554        9.1628614211       -0.3567018628
 H       -13.7549266899        2.9110461236        2.7539541788
 H       -14.5565024506        3.6170126704        4.0662377698
 H       -13.7514272042        2.0627780105        4.2516924400
 H       -12.0829214026        2.5106901810        6.2426174173
 H       -12.6819398503        4.1439953443        6.1518893637
 H       -10.9312874006        3.8183070668        6.0200915614
 H        -9.1951559401       -3.0063168307        0.4814330023
 H       -10.5111370124       -2.8973935393        1.7167690480
 H        -9.0076498368       -1.8087797537        1.6928896109
 H        -9.9757362290       -0.0186161853       -1.5368414845
 H        -8.8211499405       -1.3941557554       -1.2010318100
 H        -8.7504846675        0.0296225342       -0.3087600585
 H        -9.2082784859       -2.8177420886       -4.9502447976
 H        -8.5911383159       -1.2151652641       -5.5546994063
 H        -8.9770505965       -2.4178771041       -6.7746351045
 H       -11.1435823578        0.6690975055       -6.7268904124
 H       -10.4358666876       -0.3748618517       -7.8917595027
 H        -9.4967225608        0.4280864789       -6.6322645277
 Na       -9.5029937143        5.1287959051        1.6068696507
