117

 C        -7.6441785295        1.7580315860        1.6391772958
 C        -6.2472798855        1.7178462087        0.9697164098
 O        -5.8368067587        0.6446956550        0.5223459156
 C        -5.6606793405        3.0638420648        0.6893431750
 C        -6.0714717534        3.2346263824       -0.8456298499
 O        -7.1735677506        3.6414625245       -1.2467986744
 C        -4.9505362848        3.1878482368       -2.0872851664
 C        -4.8272112629        4.5636813163       -2.7275067628
 C        -4.6515684314        4.4413612429       -4.2810022429
 O        -4.0136238311        3.6173253178       -4.8658371675
 C        -5.6199897800        5.3490516289       -5.0494540267
 C        -6.9898970178        4.5238607192       -5.1562423648
 O        -7.9550300623        4.7331061034       -4.4097666498
 C        -6.9667167307        3.2940812368       -6.1272947199
 C        -8.1345434566        2.2733375356       -5.9947040088
 C        -9.4550117594        2.9587072282       -6.3556455907
 O        -9.6390162329        4.0294099754       -6.9089039549
 C       -10.8548454437        2.2189755642       -5.9142251903
 C       -11.2954828576        3.2086566620       -4.7756793759
 O       -10.6816934706        3.1258113737       -3.7298765995
 C       -12.4493598411        4.1508145226       -4.7922697252
 C       -13.4174813552        4.0735537955       -3.5838599488
 C       -13.7257284333        5.4810855202       -2.9594891562
 O       -14.5935524261        6.2553389985       -3.4343418744
 C       -13.0376027698        6.1862757312       -1.7643331963
 C       -11.8599194719        5.2551610257       -1.0712756787
 O       -10.6690945816        5.5426290281       -1.0452056654
 C       -12.3421972507        4.0185212216       -0.4543873008
 C       -12.4193337466        4.2287740224        1.0957570786
 C       -12.3609270043        2.8195037667        1.7913754591
 O       -11.6625130413        1.9981631961        1.2152805527
 C       -13.3546321371        2.4544039808        2.9786303610
 C       -12.4583890327        3.0183440292        4.2685272194
 O       -12.5523536804        4.2219377689        4.5682101030
 C       -11.3214834803        2.2230101873        4.9047394829
 C       -12.1026107752        2.0730688379        6.2718181266
 C       -11.7130350214        0.9271649364        7.2139637833
 O       -11.1175711902       -0.0973402133        6.8834043683
 C       -12.2511913409        0.9965620388        8.6487718179
 C       -11.9723890927        2.5138206504        9.2637147712
 O       -12.8676514503        3.1587771709        9.7732349371
 C       -10.6214599742        3.0861462277        9.1407210353
 C       -13.6944150933        0.6764489420        8.7851264244
 C       -11.3089132947       -0.0124338544        9.4809219978
 C       -14.6615880377        3.2437013963        2.9180542971
 C       -13.6728977345        0.8487016003        3.0285785242
 C       -12.3708522841        7.4778557169       -2.1652119158
 C       -14.1220292765        6.2622693236       -0.6146766712
 C       -11.7109564691        2.1495419804       -7.1864533359
 C       -10.7354350251        0.8648347702       -5.1469076774
 C        -5.9627963042        6.7596610548       -4.5882830202
 C        -4.9215013665        5.5611877062       -6.4291270929
 C        -6.2025680640        4.2400255559        1.5474298194
 C        -4.1607807821        2.8347376776        0.8600790174
 H        -8.0418322571        2.6851179931        1.4839134800
 H        -7.5390251549        1.4864910087        2.7355261737
 H        -8.3285632932        1.1222484278        1.0624423318
 H        -5.3443359300        2.3630326929       -2.7800343941
 H        -4.0609239423        2.7622497575       -1.6817537190
 H        -3.9300164156        5.1209027311       -2.3957715234
 H        -5.6954605334        5.1554115283       -2.4703387049
 H        -5.9782096632        2.6589007644       -5.8909072143
 H        -6.9604105499        3.7008463767       -7.1224460835
 H        -8.2126422331        2.0212697669       -4.8327276182
 H        -7.8674819556        1.4132740150       -6.6099952068
 H       -13.1347584370        3.9171188352       -5.6090802640
 H       -12.0969291670        5.1911209875       -4.7954606528
 H       -12.9598626269        3.2300972393       -3.0443354838
 H       -14.3245411373        3.6570236605       -3.9848215033
 H       -11.4950910869        3.2974075108       -0.5587445335
 H       -13.1558870169        3.5941195089       -0.9538056403
 H       -13.3765953216        4.7314975078        1.1671529535
 H       -11.7052770465        4.9998803791        1.4182514143
 H       -10.3474954258        2.6160594992        4.8931870219
 H       -11.1725662838        1.2550283998        4.4767763455
 H       -13.1665781795        1.7509603453        5.9257980996
 H       -12.1088313984        2.9769214919        6.7541819744
 H       -10.5336405722        4.1797102196        9.3357930458
 H       -10.0935027567        2.6936188454        8.2249683199
 H       -10.0704804136        2.5632414026        9.9221188460
 H       -14.1508605369        0.9353624278        9.8178053095
 H       -13.8076002114       -0.4057949917        8.5297850222
 H       -14.1790292214        1.2566554747        7.9975323381
 H       -11.7705680740        0.0231001181       10.4548893620
 H       -10.1988925402        0.0980189590        9.6760374728
 H       -11.4047979810       -1.1057279036        9.2910215384
 H       -14.3645129014        4.1730538912        2.6563603948
 H       -15.3140526756        3.0689855557        3.7230330878
 H       -15.1867626604        2.6899077379        2.1253732848
 H       -14.1419942923        0.4743860918        3.9981511446
 H       -12.8813264944        0.0976054703        2.9877296111
 H       -14.2632655046        0.6000360951        2.1409761661
 H       -12.3997147717        7.5221524687       -3.2124116887
 H       -11.2565802973        7.3716435624       -1.9937654153
 H       -12.7581214944        8.4186085268       -1.6685693211
 H       -13.6266153087        6.5781746719        0.3419924271
 H       -14.6143044865        5.2751787174       -0.4294847949
 H       -14.9209847489        6.8811155337       -1.0313199898
 H       -12.3136154729        3.0294428410       -7.5423334358
 H       -12.5042791556        1.3837815883       -7.1095910891
 H       -11.2188883951        1.7126500607       -8.0492226931
 H       -10.1299757921        0.1186063662       -5.7376329241
 H       -11.7499968963        0.4650801399       -5.0022194324
 H       -10.3531859364        0.9701016930       -4.2648030575
 H        -6.7702788868        6.7107096991       -3.7804304402
 H        -6.3380132892        7.4174408274       -5.4296211879
 H        -5.0298619933        7.0572974210       -4.1079903464
 H        -4.5022106303        6.4803890116       -6.4175362935
 H        -5.6636251439        5.6077598536       -7.2553058681
 H        -4.1293510071        4.9284916443       -6.6754123397
 H        -5.7629511302        5.1654938168        1.5533259841
 H        -6.3217572946        3.9128412734        2.6201997883
 H        -7.2665677263        4.3389318802        1.3197136274
 H        -3.5913483552        3.6639917314        0.3772148982
 H        -3.8206740492        2.0018548469        0.3268341590
 H        -3.9840247859        2.9356311666        1.9346228295
 Na       -9.1110993492        4.4109945789       -2.4067714995
