117

 C        -7.8133615653        1.5430578750        1.6136481886
 C        -6.3637838728        1.6574506821        0.8664945227
 O        -5.7102374473        0.7126745688        0.4773383274
 C        -5.6401906709        3.1344861514        0.5860119900
 C        -6.0306201648        3.3047358464       -0.8965126829
 O        -7.1776308487        3.5686872063       -1.2158066302
 C        -4.9776361016        2.9606881283       -2.0343942992
 C        -4.6660101434        4.3427278184       -2.6407073133
 C        -4.7127223480        4.3391154073       -4.2074520689
 O        -3.9003587144        3.5878866265       -4.7553674588
 C        -5.7048195202        5.2993777873       -5.1974190093
 C        -6.9454237701        4.4609599401       -5.2365951100
 O        -7.8647260116        4.6998257310       -4.4270346721
 C        -7.0562729395        3.2947318449       -6.2362055300
 C        -8.2190624929        2.2540119513       -5.9219221134
 C        -9.4684546682        2.9878913370       -6.1927951542
 O        -9.4196670952        4.0842315775       -6.7531218890
 C       -10.8834021734        2.2848525969       -5.9306749018
 C       -11.3560579468        3.2290412482       -4.7810110451
 O       -10.7057199083        3.1244347993       -3.7498713512
 C       -12.5558486071        4.3284141396       -4.9958538037
 C       -13.3633123823        4.1949799072       -3.6729085061
 C       -13.7246984040        5.5086688483       -3.0246497753
 O       -14.6742889770        6.0869760026       -3.4715962559
 C       -12.8525635504        6.1267888760       -1.7413800398
 C       -11.8790674567        5.0786571476       -1.0882971518
 O       -10.6719283914        5.4773289313       -1.0946826088
 C       -12.3980174180        3.9138576291       -0.2952128586
 C       -12.5495911222        4.1830353162        1.2090620082
 C       -12.4607797057        2.8172619871        1.8710053419
 O       -11.6171966611        2.0344807580        1.5495668803
 C       -13.3984689022        2.5709222276        3.0753469469
 C       -12.4325566351        3.1028921651        4.1858677000
 O       -12.4713739698        4.2833647468        4.4653880779
 C       -11.6071390717        2.1894287260        5.0084730787
 C       -12.2468438497        2.1081404055        6.4240369557
 C       -11.7740242989        1.0413554068        7.3059357451
 O       -11.2264267200        0.0225465469        6.8990937873
 C       -12.3132633951        1.0515049710        8.8440970820
 C       -11.9823397599        2.5365385567        9.3094630130
 O       -12.8290254608        3.1975457223        9.8177738000
 C       -10.5058736208        3.0947762006        8.9218949369
 C       -13.7895887165        0.6493501423        8.8634574836
 C       -11.4699149821        0.1308637872        9.5854871581
 C       -14.7614363672        3.2583877560        2.9683561324
 C       -13.5851605296        1.0058389906        3.1239010704
 C       -12.2968167429        7.4221946892       -2.3540109518
 C       -13.9830341187        6.4540692414       -0.6794239650
 C       -11.7894696773        2.2220062973       -7.1158471596
 C       -10.6717837574        0.9104739984       -5.2621373212
 C        -5.8496524284        6.7295588423       -4.6271011676
 C        -4.9312624435        5.2832025548       -6.6471405242
 C        -5.9769200135        4.2882752950        1.4486900979
 C        -4.1144127587        2.9665302994        0.8258610097
 H        -8.4417067495        2.3839509183        1.1728958352
 H        -7.6317857349        1.5480047797        2.7294588214
 H        -8.3499169714        0.6848114183        1.2444703949
 H        -5.4271048341        2.2910625695       -2.7623450529
 H        -4.1984044183        2.4044921763       -1.5811496627
 H        -3.6105395973        4.7498532610       -2.5724117336
 H        -5.3391086270        5.0797052446       -2.2094149580
 H        -6.0913058526        2.6926002874       -6.2112022321
 H        -7.2682358828        3.6789826863       -7.2959931894
 H        -8.2278452255        1.8820827834       -4.8761369933
 H        -7.9523209897        1.4622641376       -6.6719016517
 H       -13.2523068301        4.2223710729       -5.7997214877
 H       -12.0987022949        5.3490835846       -4.9188690871
 H       -12.8329911993        3.3972905604       -3.1648124896
 H       -14.2705417127        3.7435087111       -3.9558623566
 H       -11.7283201949        3.0451529086       -0.4750621070
 H       -13.3556611816        3.6582716189       -0.8087119596
 H       -13.2492104269        4.9994197526        1.2668220538
 H       -11.6547782954        4.6334171487        1.5931537300
 H       -10.5974072173        2.5542484094        5.1331367566
 H       -11.3874184604        1.3000397401        4.3897781193
 H       -13.3833970945        1.8568813275        6.3087206693
 H       -12.0514591180        3.1363175713        6.8372733352
 H       -10.6015086358        4.1111164525        8.4273771389
 H        -9.9784213716        2.3864889946        8.3679925269
 H        -9.8369725950        3.2690876034        9.8066248647
 H       -14.1770824180        0.4260709333        9.7946685753
 H       -13.9465607886       -0.1590578833        8.1620373723
 H       -14.2471544066        1.5495609959        8.3638481862
 H       -12.0157909792       -0.1780491191       10.5237482100
 H       -10.4595555521        0.2633060663        9.9129093712
 H       -11.5354019947       -0.8094059837        9.0578260256
 H       -14.5753183995        4.3262837590        3.0772399192
 H       -15.3801885238        2.7001330416        3.6193502668
 H       -15.2283368983        2.9376500111        2.0653371182
 H       -14.0232622181        0.5642846001        4.0356131198
 H       -12.6762491679        0.3410872587        3.0946873602
 H       -14.0530028182        0.6975945251        2.2146153637
 H       -11.7003396981        7.1993327098       -3.1945344938
 H       -11.6466206178        8.0366501370       -1.6911417446
 H       -13.2250151873        7.9961524595       -2.5840807822
 H       -13.6671066555        7.2993671856       -0.0693300995
 H       -14.2922285621        5.6400394590       -0.0559242078
 H       -14.8666508976        6.5834670147       -1.2798210468
 H       -12.1439320296        3.2015181098       -7.5455711099
 H       -12.7010913714        1.6436285897       -7.0583964344
 H       -11.3164251469        1.6278567963       -7.9008795295
 H       -10.0939674349        0.2980521392       -5.9367011451
 H       -11.5811170713        0.4171975843       -4.9838964572
 H       -10.0364116031        1.0421260420       -4.3191924044
 H        -6.8115885807        6.9019651817       -4.0819300720
 H        -5.8799477661        7.3662228162       -5.5665618468
 H        -4.9846378494        6.9172936770       -3.9429636180
 H        -4.1797254704        6.1235290070       -6.6586755791
 H        -5.6137161107        5.3199408207       -7.4540066938
 H        -4.3123514739        4.4582863525       -6.7668313388
 H        -5.2971544457        5.2038558852        1.2493015670
 H        -5.7558234347        3.9639158166        2.5043092597
 H        -6.9043715470        4.7113530655        1.5137000961
 H        -3.6343550918        3.9134495455        0.4926727101
 H        -3.6567236004        2.2708434647        0.1774193839
 H        -3.9149208338        2.8625186684        1.8526395922
 Na       -9.0828407746        4.3246873923       -2.5132330042
