117

 C        -7.5447031414        1.6988219846        1.3606998698
 C        -6.1729422575        1.5858777944        0.6092701224
 O        -5.5262021526        0.5553217472        0.5969152298
 C        -5.5635049999        3.0486776321        0.3675911420
 C        -6.1940086218        3.3582837270       -1.0094210198
 O        -7.4307128013        3.6837792584       -1.0214826561
 C        -5.4925118570        3.0489114197       -2.2967331899
 C        -4.6525193232        4.2296142512       -2.8601674638
 C        -4.3476244686        4.0498241521       -4.4224792714
 O        -3.5983592974        3.1528669006       -4.7834754880
 C        -5.2438974753        4.9310784021       -5.3887411567
 C        -6.5957148161        4.1746060956       -5.2300900056
 O        -7.4639529315        4.4950515861       -4.3770227439
 C        -6.8905423954        2.9722955498       -6.1231734916
 C        -8.2824973560        2.2792797276       -5.9819718428
 C        -9.5071124066        3.1557402276       -6.2245902538
 O        -9.5174322337        4.2157919863       -6.8337551551
 C       -11.0422970067        2.4007937883       -5.9600648907
 C       -11.3596012997        3.1503648536       -4.6207709109
 O       -10.5664517624        3.0129089776       -3.6771698499
 C       -12.4471328649        4.2202277339       -4.6816887512
 C       -13.5572646027        4.1832391463       -3.6648425033
 C       -13.8879556232        5.6278118175       -3.0471985895
 O       -14.9519268354        6.1691935514       -3.2771507949
 C       -12.9042139347        6.2177964250       -2.0513282470
 C       -12.0419676313        5.0778405924       -1.3784285335
 O       -10.9013064593        4.9772632946       -1.7287729311
 C       -12.6468703148        4.0672251755       -0.3660711614
 C       -12.4124540525        4.0770472001        1.1798822751
 C       -12.5022672855        2.7519565630        2.0287098768
 O       -11.5217286166        2.0936871746        1.9485119493
 C       -13.4863816779        2.5794409099        3.2794067043
 C       -12.5262231446        3.2633243133        4.3830368331
 O       -12.4385424403        4.4780308039        4.1382868457
 C       -11.9271888849        2.5993326227        5.6513823433
 C       -13.0445965262        1.9882570267        6.5916972509
 C       -12.2635350242        1.0608396259        7.5753772658
 O       -11.3542016283        0.3429141615        7.1625084410
 C       -12.3126394878        1.1815866564        9.1220261850
 C       -11.9713317230        2.6979442726        9.4501833630
 O       -12.7040724584        3.4318480210       10.0731950372
 C       -10.4334456934        3.0149020071        9.0937614477
 C       -13.9191347458        1.1158247442        9.4106418530
 C       -11.6257006831        0.1349907671        9.8529577616
 C       -14.8866574934        3.4643169018        3.0040313181
 C       -13.8471716647        1.1609520868        3.4130957285
 C       -11.8736510594        7.1978445905       -2.8333650909
 C       -13.6599992811        7.0177566398       -1.0524238038
 C       -11.8464264827        2.6014507003       -7.2140529462
 C       -10.7975492655        0.9675443863       -5.5381036025
 C        -5.4020782344        6.3856908913       -4.7313494978
 C        -4.5309081296        5.0009561286       -6.7493056110
 C        -6.2130009997        4.1041996255        1.3471829462
 C        -4.0640636984        3.0203502780        0.4433878845
 H        -8.3292416931        1.9152690123        0.7114412834
 H        -7.4624159768        2.2761490491        2.3073331761
 H        -7.7146902582        0.7121294116        1.6353099125
 H        -6.3957017806        2.8191929587       -3.0147920525
 H        -4.7505822172        2.2877693668       -2.4359415212
 H        -3.6879114179        4.2648455685       -2.3311874965
 H        -5.0149606586        5.2105070077       -2.7869867324
 H        -6.1091542462        2.1621497126       -5.8131047785
 H        -6.7266460788        3.2129371701       -7.1451171297
 H        -8.3945072885        1.8009538198       -4.8920353682
 H        -8.2472504018        1.4666815617       -6.6826464342
 H       -12.9358781655        4.2884317439       -5.6628843208
 H       -11.9681806287        5.2270629763       -4.5453676607
 H       -13.2818471176        3.4872413061       -2.7994731604
 H       -14.2898863173        3.6208759494       -4.2038510192
 H       -12.2216793419        3.1442766074       -0.7873317099
 H       -13.6588047980        4.0483621217       -0.6396262619
 H       -13.0001261127        4.8920955004        1.5871854626
 H       -11.4426849332        4.5684452385        1.3128126128
 H       -11.4203887323        3.3957027517        6.1852530418
 H       -11.1584138619        1.9790951871        5.2829786535
 H       -13.8398178622        1.5621267637        5.9622349157
 H       -13.4245174340        2.7337072222        7.1925016225
 H       -10.0726230163        2.8983464378        8.0469628295
 H        -9.8812004840        2.6085624463        9.8746681243
 H       -10.2891969267        4.0942525964        9.2056151074
 H       -14.2159859745        0.5939151405       10.3231188569
 H       -14.4222390907        0.6708467576        8.5168336517
 H       -14.2626456768        2.1880082337        9.2950379882
 H       -11.7877696974        0.2320773602       10.9407615148
 H       -10.5470555789        0.3648690230        9.9093691096
 H       -11.7817019445       -0.9129015237        9.5747694634
 H       -14.8487091486        4.4254674645        3.4757716200
 H       -15.6089612922        2.7384861357        3.3821964327
 H       -15.0693852613        3.3680803277        1.8953737077
 H       -13.9281019197        1.0240780697        4.5380600889
 H       -13.1242538854        0.3876758088        3.1955613563
 H       -14.7179002015        0.7928369713        2.9377733149
 H       -11.5048030128        7.7583742615       -2.0506790270
 H       -12.4062888434        7.9920282032       -3.4764956368
 H       -11.0624335112        6.7088445812       -3.4511935952
 H       -12.9896189370        7.1881552740       -0.1560921556
 H       -14.6311415213        6.5366571544       -0.9622004982
 H       -13.9706699007        8.0335353440       -1.4463224651
 H       -11.8278020435        3.6629299504       -7.5414600712
 H       -12.8945721787        2.4243785716       -7.1739702959
 H       -11.6055631817        1.8719130666       -7.9236419135
 H       -10.2379712739        0.4287480538       -6.3084334325
 H       -11.7016689507        0.4228464407       -5.4028594998
 H       -10.1966611003        0.9848236092       -4.5968235713
 H        -5.9634551632        6.4709650027       -3.8179244850
 H        -5.7585481211        6.9530964877       -5.5893540183
 H        -4.4443365720        6.6970010360       -4.4850813970
 H        -3.5844206207        5.4898570209       -6.5286522478
 H        -5.2046659928        5.5073135898       -7.4620459725
 H        -4.3056114129        4.0693873491       -7.2065158852
 H        -5.9373992862        5.0971137091        1.1057537556
 H        -5.8358311509        3.9480410043        2.4161936495
 H        -7.2096844977        4.2468874785        1.3796441583
 H        -3.6309587964        3.8391461572       -0.2670362146
 H        -3.6445209572        2.0536270276        0.1860111954
 H        -3.7397659284        3.2633588959        1.4669628640
 Na       -8.8166631334        4.0219475144       -2.5604901448
