117

 C        -7.5926217282        1.4465462098        1.3900568804
 C        -6.1607375011        1.5410319891        0.7670614922
 O        -5.5245476715        0.5719217166        0.5913096219
 C        -5.5628756473        3.1415486136        0.2705292483
 C        -6.2910288270        3.3673749829       -1.1241334750
 O        -7.4609154436        3.7538609583       -0.9919798475
 C        -5.6240842168        2.9034850202       -2.3712022324
 C        -4.5579039477        3.9919778575       -2.7656742313
 C        -4.3797576435        3.9792453852       -4.3491471635
 O        -3.5813038347        3.1769666414       -4.7407665106
 C        -5.1310851499        4.8704753139       -5.4331675962
 C        -6.5489937840        4.2468192811       -5.3726710648
 O        -7.1504424795        4.5002840523       -4.3341793305
 C        -6.9103832758        2.8854794581       -6.1823537046
 C        -8.2880107800        2.2132620519       -5.9688171621
 C        -9.5217780025        3.0760989733       -6.4239471392
 O        -9.4081050266        4.1792078351       -6.8739198357
 C       -10.9574508564        2.4609444628       -6.0168341537
 C       -11.2533896279        3.1433751428       -4.6619987408
 O       -10.6685227001        2.8005384799       -3.6549566200
 C       -12.3858366838        4.2877971819       -4.5712642941
 C       -13.6558002020        4.2055804762       -3.6052650273
 C       -14.0318912898        5.5819820393       -3.0530293421
 O       -14.9957447894        6.2027362153       -3.2290747137
 C       -12.8660280400        6.2301551304       -2.0880130472
 C       -12.0094293685        5.0253290216       -1.4139779670
 O       -10.8703668792        4.6783577832       -1.7961034321
 C       -12.8412127482        4.0740220663       -0.3577146057
 C       -12.4325290754        4.2800866021        1.0920876933
 C       -12.4000480341        2.8357469017        2.0233483454
 O       -11.6373664893        1.9466475660        1.9049901650
 C       -13.5179725680        2.6600936749        3.1621499594
 C       -12.7508922369        3.4584513863        4.4383724723
 O       -12.3667412682        4.5789992955        4.2625778184
 C       -12.2078860054        2.7580528835        5.6846760073
 C       -13.0793280319        1.9726142702        6.6602430847
 C       -12.2394304514        1.1523295338        7.6322924237
 O       -11.3988938411        0.3783840987        7.2760321599
 C       -12.5137145339        1.3376108813        9.1541460709
 C       -11.9284538643        2.7246614184        9.6291270482
 O       -12.5542047602        3.6188426213       10.1391564793
 C       -10.4571825519        2.9820149581        9.3531323762
 C       -14.1153908602        1.1760671634        9.7664095812
 C       -11.6440558740        0.1713372801        9.8218798302
 C       -14.7312261556        3.5770875606        2.8864302190
 C       -13.8234648248        1.1793119972        3.3505682858
 C       -11.9148581674        7.1139575878       -2.9672751007
 C       -13.4807504095        7.1822327663       -0.9739574510
 C       -11.9005327019        2.7235733733       -7.2411793489
 C       -10.9260035464        0.9284636190       -5.6471456582
 C        -5.2569020748        6.2968689308       -4.8868876980
 C        -4.3910590857        4.8948120271       -6.7872463489
 C        -6.0490593601        4.0542205481        1.3577402245
 C        -3.9848341327        3.2130304911        0.2477762998
 H        -8.1935409469        1.9955284529        0.5902471948
 H        -7.5999966264        1.8745682991        2.3688394030
 H        -7.9490161855        0.4382170301        1.4439561977
 H        -6.3601632415        2.7360590822       -3.1475377508
 H        -4.9586932849        2.0229584356       -2.3726139365
 H        -3.5604195932        3.8037856996       -2.2936011718
 H        -4.7724082589        5.0293387264       -2.5244747353
 H        -6.1676218885        2.1640645779       -5.7910961959
 H        -6.7513777263        3.0219893151       -7.3788758654
 H        -8.3113626499        1.8808758926       -4.9086054152
 H        -8.2326895982        1.1985433670       -6.5906146134
 H       -12.8414987695        4.6276775595       -5.5129516765
 H       -11.8737142082        5.2411784530       -4.2476344660
 H       -13.5583801169        3.5476350631       -2.7203257634
 H       -14.3406238490        3.6933121351       -4.2450529965
 H       -12.7285422091        3.0500994442       -0.6746551275
 H       -13.8469003704        4.3838963819       -0.6317037052
 H       -13.1302167565        4.9173299681        1.6116453692
 H       -11.6465149811        4.9337097120        1.0733605141
 H       -11.7654327097        3.5771761004        6.1757052058
 H       -11.4198916821        2.1285991328        5.2984047391
 H       -13.5624087302        1.1932145990        6.0411732879
 H       -13.9395392669        2.5288549342        7.2809368466
 H       -10.1305576560        2.4366389195        8.4619639014
 H        -9.8945759895        2.8982817833       10.2488970598
 H       -10.3638901084        4.0531936470        8.9732845797
 H       -14.0843658703        0.8883560704       10.7778131913
 H       -14.7304095049        0.4893200729        9.1253406384
 H       -14.5419780698        2.2189454234        9.5169918426
 H       -11.4186071456        0.2923209571       10.9580795479
 H       -10.6242308686        0.0872662456        9.4872962549
 H       -12.1679276200       -0.7814349660        9.7220244800
 H       -14.4066744952        4.6384296243        3.0557168035
 H       -15.4789390797        3.2452307513        3.6453405615
 H       -15.0264131136        3.3056703149        1.9323890632
 H       -14.2842525643        0.8129153351        4.2697586442
 H       -12.8387035684        0.6090547850        3.3922327525
 H       -14.3579857023        0.6518393120        2.5263720553
 H       -12.0076193649        8.1925981813       -2.6243630982
 H       -12.1104063931        7.1709172506       -4.0271425307
 H       -10.8588117042        6.7599653625       -2.8374219161
 H       -12.8123566913        7.2948368598       -0.1135822355
 H       -14.5361612133        6.8846959441       -0.8657825652
 H       -13.6156272306        8.2255449405       -1.3773300341
 H       -12.3566633839        3.7050430998       -7.3294793565
 H       -12.7840073277        2.1228785343       -7.0963539419
 H       -11.5822612187        2.2728330270       -8.2031141482
 H       -10.4577361921        0.2821705317       -6.3045958544
 H       -11.9364924758        0.6461255623       -5.6608862862
 H       -10.4896826915        0.8014281072       -4.5411205275
 H        -5.5107337040        6.4077522196       -3.8511184345
 H        -5.7794768978        6.8427453741       -5.6830921380
 H        -4.1686987733        6.6688925845       -4.9506733697
 H        -3.4610889724        5.4750873735       -6.5660401396
 H        -4.9793541698        5.2427809536       -7.5151425829
 H        -4.1197764748        3.9210350374       -7.0483393649
 H        -5.5838057214        5.0586354821        1.5830880594
 H        -5.7515264261        3.4777995276        2.1625747448
 H        -7.0574063370        4.3803025156        1.4767850956
 H        -3.6767767153        4.0242848313       -0.4348584225
 H        -3.5890515427        2.2491492453       -0.1580221917
 H        -3.4865200191        3.3282638965        1.1960079331
 Na       -8.8486441077        3.9662972004       -2.6247396823
