117

 C        -7.5511739601        1.3802213553        1.3085447789
 C        -6.0986231589        1.6088780125        0.8054602086
 O        -5.3739031530        0.6571132877        0.5225750575
 C        -5.6105244582        2.9759038617        0.4552157610
 C        -6.3363905660        3.2659989151       -0.9710836181
 O        -7.3969322281        3.7844589582       -1.0034020333
 C        -5.7012901614        2.8474776663       -2.2784942982
 C        -4.5968478809        3.8377483953       -2.8588642973
 C        -4.2414343419        3.8496284465       -4.3771843290
 O        -3.4605921603        3.0740286148       -4.8188761772
 C        -5.0055969042        4.8195063503       -5.4116537594
 C        -6.4893890092        4.0891741294       -5.2443856284
 O        -7.1999042212        4.4931589149       -4.3700434124
 C        -6.8422485495        2.9604513165       -6.2351796148
 C        -8.1858183234        2.2925520561       -5.9280240189
 C        -9.4850038007        2.9956036821       -6.4297404427
 O        -9.3430832385        4.0671091958       -6.9430804562
 C       -10.9355564378        2.4589668038       -6.0012380216
 C       -11.4410549578        3.1073613066       -4.6712969131
 O       -10.8204506367        2.6860365057       -3.6955886759
 C       -12.2857835601        4.3557931676       -4.5648082129
 C       -13.5917396108        4.2341037432       -3.6714056578
 C       -13.9184305398        5.5889050965       -2.9276184937
 O       -14.9894175006        6.1054649758       -3.2053380570
 C       -12.7408545428        6.2242772025       -2.0698218212
 C       -12.1534683005        4.9725031528       -1.4032038023
 O       -11.0210502533        4.5883994471       -1.7041625852
 C       -12.8806502450        4.0735265730       -0.3306775165
 C       -12.3277332633        4.1964002125        1.1561086925
 C       -12.4510980733        2.9963172037        1.9389397164
 O       -11.6962603944        2.0473630470        1.6204939481
 C       -13.4257668005        2.8843314635        3.1862014657
 C       -12.7996071782        3.5666442295        4.4198559023
 O       -12.4553590806        4.7234326511        4.2771549572
 C       -12.3555480969        2.7339647093        5.7089893706
 C       -13.3032377711        1.9615387807        6.6520427408
 C       -12.3874514403        1.1735739887        7.7611231431
 O       -11.4788947842        0.5255704759        7.2989399107
 C       -12.6269195933        1.4644905693        9.3405879818
 C       -11.8739830704        2.7818157171        9.7740759652
 O       -12.6030236184        3.6644761811       10.2032394884
 C       -10.3510817882        2.9283797150        9.5034173621
 C       -13.9856058190        1.3084473521        9.8651554645
 C       -11.7459464324        0.2356641925       10.0235754710
 C       -14.7577433813        3.6397058091        2.8318273606
 C       -13.7551754618        1.4186370689        3.3304023921
 C       -11.8562785580        7.0459571482       -3.0342454477
 C       -13.3555602300        7.1234028903       -0.9127939169
 C       -11.9095408461        2.8323836714       -7.1493371669
 C       -10.9761933625        0.9071833838       -5.8858822484
 C        -5.1505859299        6.3544373163       -5.0275425953
 C        -4.3549067037        4.6534284693       -6.7797277530
 C        -5.9479552109        4.0956901144        1.4163662063
 C        -4.0895199720        3.1476904262        0.0735430689
 H        -8.1500753605        2.1608633755        0.8088359227
 H        -7.3810649219        1.5440981226        2.3640058047
 H        -8.0564445634        0.3530908765        1.1673337426
 H        -6.5122078407        2.7743588176       -2.9136194887
 H        -5.1707269610        1.8739384378       -2.2707713063
 H        -3.6610140975        3.7844989252       -2.3095091551
 H        -4.9414273825        4.9274802828       -2.6809262087
 H        -6.0541612165        2.2458637399       -6.3817013379
 H        -6.9937157562        3.5681952611       -7.1737473696
 H        -8.0791330184        2.0494071067       -4.8913795776
 H        -8.2577767737        1.2799065797       -6.4288113990
 H       -12.4916641059        4.9684513960       -5.4767366645
 H       -11.6713151293        5.0099126472       -3.9904208070
 H       -13.5572117674        3.4209843010       -2.9944419661
 H       -14.4272277296        3.9598722904       -4.3856131938
 H       -12.7537932842        3.0247394116       -0.6040981760
 H       -13.9552718854        4.3576741139       -0.5183307955
 H       -12.5678362177        5.0636444848        1.7505782780
 H       -11.2649545240        4.4289332529        0.9923843755
 H       -11.9763860552        3.5689159969        6.3464391097
 H       -11.5391689016        2.0519140063        5.3650518315
 H       -13.8227084766        1.1070389943        6.1237879094
 H       -14.1019196563        2.5539309416        7.2540409532
 H       -10.1053399616        2.0041799106        9.0236259845
 H        -9.8520679657        3.0362198706       10.5471371011
 H       -10.0009166347        3.6763794155        8.8092517576
 H       -13.8446132424        1.2514255528       10.9795607718
 H       -14.4010413321        0.3776819803        9.4987074008
 H       -14.5896787050        2.0680655448        9.5251424333
 H       -11.3166794177        0.2396620089       11.0040695905
 H       -10.8318794266        0.0282792750        9.4393842382
 H       -12.3693584076       -0.6652792724        9.9398061482
 H       -14.5275568078        4.7082950626        2.6004555606
 H       -15.3810659724        3.5909825128        3.7641435135
 H       -15.0459692679        3.0833502299        1.9591602522
 H       -14.6726813184        1.0201879650        3.7117077437
 H       -12.9616370189        0.7667803717        3.7431059181
 H       -13.7307470494        1.0482244618        2.2559034796
 H       -12.2219205877        8.1163484744       -3.2055698415
 H       -11.9962047856        6.6880857896       -4.0162713014
 H       -10.7827264375        7.0210337553       -2.8036937315
 H       -12.6146732840        7.4134118830       -0.1947828548
 H       -14.3054888343        6.6805424542       -0.5910968577
 H       -13.6499117993        8.0612590605       -1.3299089325
 H       -12.3622464051        3.7949728469       -7.1059512221
 H       -12.8450866322        2.1971780138       -7.0430337320
 H       -11.6217004825        2.6046772020       -8.2084751066
 H       -10.6935029091        0.3654335065       -6.8095895528
 H       -12.0889894899        0.7299498520       -5.8298648740
 H       -10.5059061004        0.5428089072       -5.0862215656
 H        -5.3861617195        6.3498479967       -3.9339070068
 H        -5.7528991067        6.8956990491       -5.7627242541
 H        -4.1021874846        6.8067475509       -5.0500457328
 H        -3.4626323774        5.1896449067       -6.6780287733
 H        -4.9996955385        4.9783141608       -7.6304110845
 H        -4.1614524875        3.5733774190       -6.9023596794
 H        -5.4021675838        5.0377043709        1.4332787442
 H        -5.8366594232        3.7978374444        2.4351369877
 H        -7.0422161102        4.4965486613        1.2807833393
 H        -3.9416779295        4.1276598953       -0.1984329876
 H        -3.7100052728        2.4105489652       -0.6633030460
 H        -3.4360267733        2.8717696042        0.9263252925
 Na       -8.9500074088        3.9318399793       -2.8170053279
