117

 C        -7.3310397553        1.1477654628        1.3288907902
 C        -5.9176766452        1.4116726693        0.7489368818
 O        -5.2241815999        0.4982593671        0.3604174279
 C        -5.5828991413        2.8839054979        0.3121755288
 C        -6.3147822225        3.1406737788       -1.0135563598
 O        -7.4030607190        3.5630503012       -1.2062363113
 C        -5.4699661076        2.7118142624       -2.2817609792
 C        -4.6622644137        3.8345117022       -2.9184759841
 C        -4.1633387548        3.4870004490       -4.2737690257
 O        -3.3862618954        2.5967663759       -4.6038826765
 C        -5.0551030106        4.3641759905       -5.4263491763
 C        -6.5605209435        3.9571268491       -5.2660525894
 O        -7.2668559708        4.5593979566       -4.4925703092
 C        -6.9996636179        2.7439565868       -6.1566497503
 C        -8.4594748621        2.3383395940       -6.0009056181
 C        -9.6305955394        3.0336248254       -6.6165014887
 O        -9.4195073687        3.9984232884       -7.3199837419
 C       -11.2721661274        2.4204165032       -6.4021320402
 C       -11.3986254271        2.8593688189       -4.9922932595
 O       -10.9480601433        2.0978941565       -4.1154860464
 C       -11.6573327507        4.3348575950       -4.6416259298
 C       -13.0682351817        4.3223554251       -3.9686630502
 C       -13.4775726976        5.4473840094       -2.9882602872
 O       -14.6808020013        5.7228075986       -2.9760808266
 C       -12.6193790267        6.2204101398       -1.8486168894
 C       -11.8512287954        5.0430154197       -1.1427558679
 O       -10.7006532711        4.8439537863       -1.6498119588
 C       -12.4416973960        4.1799000941       -0.1170988180
 C       -12.0801409686        4.4604521280        1.4224799954
 C       -12.4519235638        3.0636900773        2.1328449340
 O       -11.9589175629        2.0150276429        1.6571002325
 C       -13.5249136716        3.0536474260        3.3598117414
 C       -12.9693201371        3.7235306960        4.5515835164
 O       -13.0598324947        4.9436688655        4.6782635082
 C       -12.2665940171        2.9448509282        5.6044623850
 C       -13.0421958788        2.8419436378        6.9127361864
 C       -12.4619508400        1.7669763112        7.9065323271
 O       -11.7908860618        0.8858067169        7.4248443255
 C       -12.7708953015        1.7757653827        9.5634586678
 C       -11.9218066706        3.0078499272       10.0061941360
 O       -12.4502544939        4.1260179343       10.0977124365
 C       -10.3763543178        2.7036354496       10.0661733600
 C       -14.3434968619        2.0464907508        9.7604774405
 C       -12.4151111335        0.3410941597        9.9553942249
 C       -14.8180165936        3.8345018407        2.8148669293
 C       -13.9210374058        1.5753399131        3.5214420950
 C       -11.5439253692        7.1893462326       -2.6458899852
 C       -13.5317026962        7.1675104017       -1.0647623607
 C       -12.3424971217        2.8922602946       -7.4277077668
 C       -11.1889280495        0.9123248149       -6.4861919765
 C        -4.6193417633        5.9193332759       -5.2801915289
 C        -4.3994105913        3.8212065392       -6.7009480957
 C        -6.2293285645        4.0366661586        1.2474882068
 C        -4.0561420128        3.1904038540        0.1352843968
 H        -7.8750788689        2.0343123693        1.3885253389
 H        -7.0415573647        0.7862360922        2.3466907652
 H        -7.8345680465        0.3087669601        0.7813170903
 H        -6.1806488059        2.3517483496       -3.0024589575
 H        -4.8393931203        1.8491338664       -1.9183211319
 H        -3.8475720732        4.1252293536       -2.2624167825
 H        -5.3942239808        4.7062643216       -2.9497655913
 H        -6.3362470829        1.8400574864       -5.8939307136
 H        -6.9122984922        2.8509704831       -7.2657996734
 H        -8.7029117590        2.1865158383       -4.9163376729
 H        -8.3257255198        1.3042511589       -6.2691613048
 H       -11.5599830193        4.9817701828       -5.5546391410
 H       -10.9042529728        4.8029312330       -3.9878557747
 H       -13.1809452529        3.3720637818       -3.4949074358
 H       -13.9064469591        4.3541750946       -4.7513788280
 H       -11.9524444589        3.2232617070       -0.1761174436
 H       -13.5225744752        4.0916018346       -0.1253405523
 H       -12.5683688665        5.2120832246        1.9857432049
 H       -11.0144231039        4.5581929321        1.6237503066
 H       -11.5358323086        3.6633682141        5.8136799153
 H       -11.9464104703        1.9988702914        5.2924415354
 H       -14.1602719963        2.4946060627        6.8858409839
 H       -13.1494683972        3.7821133233        7.4031180907
 H       -10.2115761274        2.0037673753       10.9200239848
 H        -9.8329358085        3.6004533137       10.5172084578
 H        -9.9223343364        2.3009266785        9.1795131939
 H       -14.3632365277        2.2972814239       10.9065345166
 H       -14.7859136937        1.0425582328        9.5978130100
 H       -14.7489478548        2.8495998495        9.2092161749
 H       -12.3255913190       -0.0194539047       10.9521470548
 H       -11.3341534896        0.2506320687        9.5963090226
 H       -12.9553151769       -0.4747222594        9.4067543220
 H       -14.7904630294        4.8056030707        3.1807532276
 H       -15.6288591021        3.3875120230        3.3291328163
 H       -14.6785752702        3.9232161703        1.7361148505
 H       -14.2826166929        1.3745481929        4.5528463666
 H       -13.1175533659        0.8996599253        3.2583544517
 H       -14.8890663166        1.2958867478        3.0470344256
 H       -11.3324209022        8.0570845816       -2.0371277679
 H       -11.8851286018        7.6225475350       -3.5994793559
 H       -10.5354997939        6.7490324616       -2.7013334410
 H       -13.0038715934        8.1301205814       -0.7735977516
 H       -13.7849238296        6.7155783909       -0.0467628615
 H       -14.3892032172        7.5631383358       -1.6421401005
 H       -12.0879213705        3.8178070692       -7.8679107113
 H       -13.2760842304        3.1254644709       -6.8811391638
 H       -12.4538376880        2.3337450465       -8.3469600008
 H       -10.4034465368        0.7414464612       -7.2349257249
 H       -12.1064514620        0.4531661401       -6.8680537149
 H       -10.9481476284        0.4134484896       -5.5809373660
 H        -5.5480955223        6.3017886782       -4.7356457258
 H        -4.6123910199        6.4260294034       -6.2542204807
 H        -3.6763066223        6.1183088035       -4.7790284556
 H        -3.4820433174        4.2012719828       -6.8361206441
 H        -5.0118269340        4.2629834965       -7.4749397349
 H        -4.4863159125        2.7828093541       -6.7080734754
 H        -5.8550644033        4.9324218181        0.9217368858
 H        -6.0738490238        4.1838956316        2.4110539914
 H        -7.3313687014        3.9982407938        1.1749577285
 H        -4.1266597346        4.2129323372       -0.2224223752
 H        -3.4929099937        2.5561170479       -0.5527773332
 H        -3.4152166972        3.2771932006        1.1129969347
 Na       -8.9894917171        3.8252646654       -2.8274814316
