117

 C        -7.0687712158        0.7984475575        1.6180693786
 C        -5.9433795291        1.2324192645        0.7027625931
 O        -5.1429431873        0.4496599599        0.2667353767
 C        -5.7676354045        2.8605555274        0.5155808022
 C        -6.4195255029        2.9546758415       -0.9190366856
 O        -7.6140518435        3.0435714823       -0.9573027828
 C        -5.3257909573        2.5525358687       -2.1526609249
 C        -4.7789831153        3.7217619131       -3.0555379487
 C        -4.3066342884        3.3338852517       -4.4633888319
 O        -3.6044242998        2.3767736118       -4.7129825780
 C        -5.1225006776        3.9844898933       -5.7248223541
 C        -6.6409800234        3.4055996611       -5.5850450564
 O        -7.4437424445        3.6593760243       -4.7269107383
 C        -7.0728277303        2.5981996008       -6.7806249563
 C        -8.4273069831        1.8950253920       -6.5687687896
 C        -9.4814706944        2.8786432863       -6.9609951457
 O        -9.1352950564        3.7766951506       -7.6909941311
 C       -11.0320346786        2.6667764952       -6.4762509654
 C       -10.9920284902        3.2597292504       -5.0659141741
 O       -10.3519637081        2.5898772768       -4.2689632783
 C       -11.8312051282        4.3422482753       -4.5404641688
 C       -12.8746465471        3.9645923411       -3.4126798657
 C       -13.4723038758        5.3798386118       -2.7650966541
 O       -14.5110560051        5.8489947735       -3.0188514743
 C       -12.4162156422        6.2025360149       -1.7588411507
 C       -11.4423522005        4.9438632006       -1.0623310219
 O       -10.2111584780        4.8830061676       -1.2002529169
 C       -12.1419101348        3.8952459984       -0.1944091300
 C       -12.3284966741        4.3681680786        1.3013680347
 C       -12.6020998893        3.1338187817        2.2818622540
 O       -11.7404162660        2.2619202414        2.3580714087
 C       -13.7889165674        3.1381737216        3.3058632087
 C       -13.1300607005        4.1116450255        4.6021994279
 O       -13.4372900822        5.2548050342        4.8123369687
 C       -12.1407250245        3.3161503091        5.5354039905
 C       -12.2010125268        3.4964220646        7.0812934457
 C       -12.3718816541        2.1431448393        7.8633033899
 O       -12.1177962953        1.0443023812        7.3802658039
 C       -12.9550807645        2.2864952705        9.2696783754
 C       -11.9059955113        3.1884129118       10.0294700717
 O       -12.0939666914        4.3542583658       10.0257693472
 C       -10.7677586198        2.6218264427       10.8127772636
 C       -14.3911130020        2.9879982903        9.0135445305
 C       -13.1064641006        0.7258418752        9.8969610760
 C       -14.9564304136        3.9962056858        2.7654269621
 C       -14.2065306279        1.7195915813        3.6881343345
 C       -11.4410146968        7.0541460520       -2.5121947103
 C       -13.2484131174        6.9757571666       -0.6746291966
 C       -11.9894528142        3.2549980796       -7.4700581665
 C       -11.3487648479        1.2133612461       -6.2701751671
 C        -5.0752778669        5.5142630243       -5.5832558977
 C        -4.5210767225        3.5484187632       -7.0109133780
 C        -6.6990484717        3.7840591567        1.3962225454
 C        -4.2962061808        3.2633239349        0.6590246406
 H        -8.0250751257        0.7970765379        1.2300213675
 H        -7.0018553892        1.5099842492        2.4623578012
 H        -6.7110781029       -0.1677261996        1.8419885589
 H        -5.9097767245        1.8970139773       -2.8517977471
 H        -4.3963666454        2.0361460647       -1.7612290482
 H        -3.9317438183        4.0268748539       -2.5028809175
 H        -5.5324028799        4.5506325547       -3.1657535116
 H        -6.2023119900        1.8790688666       -7.1867469921
 H        -7.1000740846        3.3985031587       -7.5226260212
 H        -8.3044261259        1.5654425933       -5.4394607369
 H        -8.5069947767        0.9025361360       -6.9834978316
 H       -12.3945572104        4.8425454818       -5.3772488337
 H       -11.0011975423        5.0292287347       -4.2696607068
 H       -12.4201319981        3.3792879308       -2.6249793845
 H       -13.7201026067        3.3149259753       -3.8482077002
 H       -11.5116943670        3.0092527905       -0.2902915859
 H       -13.1470780809        3.6312227335       -0.5088160319
 H       -13.1560688040        4.9776067909        1.2609364750
 H       -11.4039945472        4.8971661784        1.4095847107
 H       -11.2397809835        3.4874381712        5.0404956849
 H       -12.4047132384        2.3908710870        5.1794810796
 H       -13.1671045478        4.1285707045        7.3505686501
 H       -11.4566818294        4.1870053564        7.3028339922
 H       -11.2238944087        2.4859819513       11.8297939902
 H       -10.0116092856        3.3388994158       11.0348515406
 H       -10.2989480311        1.7462548725       10.4100634814
 H       -15.0382372933        2.5778483420        9.8088051816
 H       -14.6972850661        2.5092956797        8.0658703539
 H       -14.3285031626        4.1161659444        9.0307264671
 H       -13.2522858452        0.7456964920       10.9184082497
 H       -12.3350984533       -0.0347959307        9.6908953108
 H       -14.0318265961        0.2314049734        9.6088178538
 H       -14.5011003519        4.8842094018        2.4760385327
 H       -15.8028606822        4.1451466714        3.4120941858
 H       -15.2474296059        3.4344869480        1.7670262096
 H       -15.3396910816        1.7984224512        3.9764366861
 H       -13.6318424940        1.1459429302        4.3948852901
 H       -14.2599559062        1.1254720520        2.7797952239
 H       -10.5594817025        6.5370812071       -2.6034519970
 H       -11.2677750662        8.1120468193       -2.1430760605
 H       -11.8282301536        7.2387909946       -3.5730693731
 H       -12.8324323363        6.9415451248        0.3517300781
 H       -14.2495437397        6.6250953285       -0.3507908997
 H       -13.3793819326        8.0068908747       -1.0572960532
 H       -11.9053548383        4.3498969713       -7.6690018179
 H       -13.0477347708        3.0373893967       -7.1790247049
 H       -11.7646312545        2.7475227692       -8.3971867602
 H       -11.4301637878        0.9244890417       -7.2677296307
 H       -12.2353206651        1.0349619841       -5.7688770899
 H       -10.5406301278        0.5062298970       -5.7055208414
 H        -5.0796859013        5.7547570680       -4.5397777220
 H        -5.8282838353        6.1498096073       -6.0020544289
 H        -4.1562167809        5.7477257072       -5.9521065615
 H        -3.6173739124        4.1447642318       -6.9683958517
 H        -5.0251275347        3.9823096558       -7.8028998763
 H        -4.1789146374        2.5957715614       -6.9883645009
 H        -6.5144531141        4.8235464533        1.2788598001
 H        -6.7153228034        3.4994024443        2.5261675088
 H        -7.7224602021        3.6054652584        1.2553027835
 H        -4.1435576125        4.3651821430        0.5087304621
 H        -3.6013176963        2.6936858675        0.1098489951
 H        -4.1039571334        3.3085302537        1.7638791090
 Na       -8.9795433110        3.6906374695       -2.9690890069
