117

 C        -6.9046619566        0.5110040633        1.9017833994
 C        -5.9656469844        1.2039300749        0.8465657736
 O        -5.1443045977        0.4895658977        0.3174737988
 C        -5.9671010336        2.7799610371        0.5378404154
 C        -6.3014055588        2.6923396974       -1.0459994140
 O        -7.4225976602        3.1889869052       -1.2995328977
 C        -5.3618891972        2.2838455576       -2.1598087772
 C        -5.0621169504        3.5982219313       -3.0683780052
 C        -4.4957372637        3.2785614386       -4.4681751089
 O        -3.7419864737        2.3308077269       -4.4690822416
 C        -5.2190697540        3.9037046531       -5.7648787286
 C        -6.5786682844        3.0967153001       -5.9315735807
 O        -7.3878740611        3.2331831066       -4.9972490809
 C        -6.9421863072        2.0774265280       -7.0486699063
 C        -8.4300133168        1.6860348795       -7.0392745785
 C        -9.4732089713        2.7647661424       -7.1462336377
 O        -9.3448770008        3.7422909642       -7.8727647213
 C       -10.9965706416        2.7327321157       -6.4542190711
 C       -10.9434126666        3.3151883511       -5.0398474078
 O       -10.2130644814        2.8871135035       -4.1523604812
 C       -11.9656158575        4.3350602969       -4.7016596498
 C       -12.7348146910        3.9230892208       -3.4732989273
 C       -13.2133489715        5.3301255485       -2.6117628747
 O       -14.2597628070        5.9318904065       -2.8314679292
 C       -12.3345891530        5.8565916859       -1.5022212005
 C       -11.4023505461        4.7222745034       -0.9626426232
 O       -10.2276857570        4.7332832906       -1.3143824658
 C       -11.8416231930        3.7580161008        0.0646700615
 C       -12.3503863142        4.4767471223        1.3982731833
 C       -12.5480130699        3.4109366385        2.4084432092
 O       -11.7355473216        2.4724107480        2.4348704136
 C       -13.8067918935        3.3696852546        3.2413496025
 C       -13.1974431741        4.0896911875        4.6303314142
 O       -13.5867790282        5.1847606350        4.9548768441
 C       -11.9377889768        3.3581870946        5.3219486198
 C       -11.9457780633        3.6612231789        6.8108683063
 C       -12.2080978937        2.3951174661        7.6146490801
 O       -12.2000267482        1.2950628618        7.1562456296
 C       -13.0832129094        2.6034279306        9.1360752993
 C       -12.1110371143        3.3265203327       10.0906671481
 O       -11.8463993648        4.5727098852       10.0617700846
 C       -11.3066238977        2.4775107458       11.1124190113
 C       -14.3870906934        3.4591348109        9.0748841520
 C       -13.3745677694        1.2356861934        9.7022323244
 C       -14.9698945213        4.2665373648        2.7111370433
 C       -14.2956588461        1.8215193712        3.5534612216
 C       -11.3428806497        6.9017412745       -2.2126307734
 C       -13.1490815617        6.7479619959       -0.4775738975
 C       -11.8401912934        3.5385532786       -7.4215261224
 C       -11.4054613803        1.2511174962       -6.3535076360
 C        -5.5381682854        5.3818787761       -5.5333677635
 C        -4.2621894018        3.5741477436       -6.9311030400
 C        -6.8468221197        3.4600050241        1.5555395641
 C        -4.4675603824        3.3243671087        0.6398638175
 H        -7.7650544454        0.0437022508        1.3249158425
 H        -7.2863177447        1.2537771652        2.5582403525
 H        -6.2547130034       -0.3418316625        2.2965369310
 H        -5.7244681062        1.6143925505       -2.9077271388
 H        -4.4864663633        1.9139001964       -1.6649684744
 H        -4.3684384438        4.3262105569       -2.5486146414
 H        -6.0248775479        4.0229472063       -3.2884012614
 H        -6.3915547956        1.2563257432       -6.9322907531
 H        -6.6395553274        2.4942167175       -8.0164178959
 H        -8.4698466379        0.9379737119       -6.3735203785
 H        -8.6023888730        1.0839268091       -7.9520377867
 H       -12.6717285430        4.4541974010       -5.4894210587
 H       -11.4338845507        5.2725363691       -4.5449857326
 H       -12.3007528769        3.1544135943       -2.7960369415
 H       -13.7110014648        3.5642428101       -3.6792402535
 H       -11.0897287787        2.9911026389        0.1874432420
 H       -12.7371210532        3.2178362253       -0.2563735613
 H       -13.3328491650        4.9668260841        1.0770724086
 H       -11.5224598335        5.1058778477        1.7090292742
 H       -11.1099807789        3.6486051527        4.6076052862
 H       -11.9848202165        2.2818507051        4.9207862637
 H       -12.5550856506        4.4357345813        7.0394595905
 H       -10.9189936650        4.1161495949        7.0128551783
 H       -11.7501308532        1.9552424684       11.9331295790
 H       -10.5907189827        3.1841221923       11.6693259290
 H       -10.6142251240        1.8574442311       10.5167894265
 H       -14.6430317177        3.5452643854       10.1580212379
 H       -15.1806955914        2.9016685277        8.5547978441
 H       -14.1394408811        4.4107636895        8.7762034100
 H       -13.7579140705        1.1831529635       10.7719866322
 H       -12.5445962728        0.5383659772        9.6177462121
 H       -14.1632488946        0.6704840774        9.1880677873
 H       -14.5404127380        5.3159476953        2.5601682225
 H       -15.5778005499        4.3281110904        3.6489834735
 H       -15.5912538467        3.8718830276        1.9563462730
 H       -15.3158018675        1.6766147866        3.7332069422
 H       -13.7868803565        1.5400930442        4.4957878703
 H       -13.8328062455        1.1142173423        2.7831788908
 H       -10.8522211939        6.4447369061       -3.1630091337
 H       -10.4885260346        7.0107185888       -1.5992132689
 H       -11.7435615095        7.8658708332       -2.3834121962
 H       -12.5561229082        7.2381926009        0.2809092262
 H       -13.7811610714        6.2110039474        0.2485543198
 H       -13.8740054093        7.3682139792       -1.0129790302
 H       -11.3468264037        4.4661344610       -7.7229766797
 H       -12.8988952411        3.7398412574       -7.2209693388
 H       -11.9078077035        2.8132494105       -8.3241472142
 H       -11.2718467934        0.7866765198       -7.3648696306
 H       -12.4947751070        1.1050494595       -6.0572764125
 H       -10.8225341928        0.7459905000       -5.6826011976
 H        -6.0676878430        5.6967690586       -4.5868582521
 H        -6.2079783528        5.7220630443       -6.3628845689
 H        -4.5369336850        5.9684843821       -5.5667064685
 H        -3.2948441182        3.9964085671       -6.8481339045
 H        -4.7903665432        3.8583312768       -7.9306276807
 H        -4.0158146887        2.4796761810       -6.7799693881
 H        -7.0088846775        4.5029999912        1.2373197084
 H        -6.4892797267        3.3576535324        2.5600429442
 H        -7.9268219366        3.1058283172        1.6751749090
 H        -4.4232906275        4.3205743133        0.2869750283
 H        -3.7525179897        2.7381068368       -0.0106366913
 H        -4.1332299108        3.4517405839        1.6604663100
 Na       -8.8582000560        3.7885230375       -2.6136789644
