117

 C       -13.0657992125       -2.1427335307       -7.0560864533
 C       -11.6276955674       -2.5239341237       -6.5251963570
 O       -11.2289929147       -3.6575770690       -6.6650178415
 C       -10.6693506163       -1.5328329793       -5.7762493312
 C       -11.3168606744       -1.0669354942       -4.4956844751
 O       -11.6370760165        0.1014140707       -4.2580592193
 C       -11.4602751142       -2.1143078924       -3.3346640027
 C       -12.0910426485       -1.5132947924       -2.0885107693
 C       -11.5069342855       -2.1864482694       -0.7824219557
 O       -11.7413226115       -3.3094014488       -0.5007206346
 C       -10.5310663954       -1.2828190577        0.2766296741
 C       -11.4666162287       -0.4119985075        1.2235335462
 O       -12.6711578806       -0.3133274762        1.0378470778
 C       -10.7030622944        0.3341115378        2.3837679683
 C       -11.6245927719        1.3439977393        3.0939846048
 C       -11.0958338481        2.7460565394        3.2451900439
 O        -9.9093713956        3.0623981694        2.9861590795
 C       -12.0256556212        3.7396707151        4.0285175847
 C       -11.8232105138        5.1667571623        3.5802350248
 O       -10.7506512971        5.7458348014        3.5444056607
 C       -13.1232874412        5.9086960785        3.0923475432
 C       -13.6022649451        5.5218183398        1.6809066387
 C       -12.3294437560        5.6679813726        0.7213995057
 O       -11.4865728966        4.7792471194        0.7581389418
 C       -12.2172278716        6.9323437570       -0.1590301902
 C       -10.6583791733        7.3842910930       -0.4512185123
 O        -9.8870342930        7.1354501237        0.4282537214
 C       -10.2710295462        8.2119767482       -1.6354795304
 C        -8.7137816372        8.3696785397       -1.8738138590
 C        -7.9917282794        9.1937231381       -0.8337151677
 O        -8.4963739115        9.6562461761        0.1515251906
 C        -6.4039080845        9.3301109756       -0.8966175264
 C        -5.7374227335        8.2715779927       -0.0065531483
 O        -5.0400408505        7.3621057109       -0.4647703217
 C        -6.0892020618        8.3926325926        1.5395838524
 C        -5.3715744225        7.3164267936        2.3625846719
 C        -6.4056120701        6.1390044688        2.4012529233
 O        -7.5247665992        6.4522416665        2.7833879715
 C        -5.9436975080        4.6798612409        2.1011304549
 C        -6.3847865782        4.3540209746        0.6751333217
 O        -7.5704470220        4.2191930886        0.3960353010
 C        -5.4209789169        4.1036492897       -0.4183725431
 C        -4.4211848815        4.3930058027        2.3518393160
 C        -6.7724381259        3.7245159030        3.0284887965
 C        -5.7549033030        9.1438892544       -2.3906563484
 C        -6.1191982931       10.7842444539       -0.3702368662
 C       -12.8254091950        6.4654555846       -1.5074210715
 C       -12.7635169714        8.1372089115        0.5280045939
 C       -13.4974346709        3.2666791678        4.2026998276
 C       -11.3668758936        3.5623074586        5.4641356901
 C        -9.7407252246       -2.4772684196        1.1140697424
 C        -9.6255651025       -0.2479269323       -0.4373608734
 C        -9.3155970682       -2.1906884362       -5.4213184373
 C       -10.5486456189       -0.3690100172       -6.6795310882
 H       -13.4751470292       -3.0494003577       -7.6810181961
 H       -13.1171674792       -1.1498800101       -7.5029928831
 H       -13.6813208723       -2.1526722354       -6.0515388968
 H       -10.3696334578       -2.5481212902       -3.1725646691
 H       -12.0907521674       -2.8979320032       -3.6788002377
 H       -13.1521048941       -1.6773129581       -2.2872082582
 H       -11.8333225978       -0.4819829825       -2.0578456352
 H        -9.7850349155        0.8190604101        2.1492134881
 H       -10.2946349513       -0.4236327578        3.0348845450
 H       -11.9435986179        0.9641715529        4.1332422878
 H       -12.6028487539        1.3712999584        2.6490947260
 H       -12.7706394071        6.9257480238        3.1369868430
 H       -13.9730379449        5.8191764947        3.8200742292
 H       -14.4548370455        6.1154963809        1.2699341373
 H       -13.8717822319        4.4971704435        1.5797669643
 H       -10.6244111401        9.2429714302       -1.4851253874
 H       -10.8187300515        7.9015958690       -2.5146046527
 H        -8.6927937815        8.8165672454       -2.8423921232
 H        -8.2085317420        7.4392620312       -1.8755452105
 H        -7.1883720168        8.2577990773        1.5548814575
 H        -5.8414839378        9.4093091861        1.9486363840
 H        -5.1472653032        7.7278012066        3.4198596775
 H        -4.4238566753        6.9545719781        1.8720126183
 H        -4.5978229944        4.8514448859       -0.4838153361
 H        -5.8710883031        4.0008475509       -1.3882241194
 H        -5.0142262541        3.1138752794       -0.2273026059
 H        -4.0926371067        4.2896984482        3.4567680881
 H        -3.7404659406        5.0481765871        1.8525273816
 H        -4.2320477398        3.4122008570        1.9558856809
 H        -7.7274409799        3.5571970423        2.5122193781
 H        -7.0086266579        3.9953024281        4.0675604749
 H        -6.1643820488        2.7990714306        3.1171448064
 H        -6.0264073641        9.9116379767       -3.1338720895
 H        -6.2037205854        8.2058764838       -2.8233796728
 H        -4.7197271398        9.1347429481       -2.4409229131
 H        -5.1024162959       10.9389354291       -0.1445872927
 H        -6.7002779786       11.0407118498        0.5168649701
 H        -6.5108875521       11.4340042770       -1.1165469099
 H       -13.8036437003        5.9675191037       -1.3810640371
 H       -12.1130926554        5.7880239962       -2.0253979943
 H       -12.9090044217        7.3021302046       -2.1933573638
 H       -12.0249967943        8.4724194427        1.2432169121
 H       -13.7277827143        8.0979953958        1.0284614128
 H       -12.9160468515        8.9669345630       -0.1950741479
 H       -14.0367907476        3.2097465427        3.2326121323
 H       -14.1120488357        3.9591722532        4.7136659608
 H       -13.6439388892        2.3263794394        4.8002994327
 H       -11.2280614566        2.5243849748        5.6951538051
 H       -11.8942891914        3.9143435517        6.3293155542
 H       -10.3231904245        3.8961980769        5.4527705544
 H        -9.1289633727       -3.1278568188        0.5301586232
 H       -10.5275244898       -3.0670473335        1.4891168468
 H        -9.1854791037       -2.0809104514        1.9517791938
 H       -10.2347486403        0.6956060612       -0.4409481962
 H        -9.3796321950       -0.5278427134       -1.4669393175
 H        -8.6787831739       -0.0903857982        0.0606588167
 H        -9.5892986688       -3.0948036820       -4.9396962031
 H        -8.7620022079       -1.4965203253       -4.7866805245
 H        -8.8258999503       -2.2977936680       -6.4189415001
 H       -11.0377533576        0.4971310505       -6.3487129020
 H       -10.8810752749       -0.4750997799       -7.7132322928
 H        -9.5404521400       -0.0169598396       -6.7469213859
 Na       -9.1929476001        5.0816567930        1.7413705071
