117

 C        -6.4326579617        0.2964750007        2.1223964158
 C        -5.7586918060        0.9773749681        0.9119531090
 O        -4.8889939214        0.3385326349        0.3438314331
 C        -5.9358198604        2.5068173209        0.6052125668
 C        -6.3022953711        2.7252140437       -0.8276410964
 O        -7.4279609878        3.1574068038       -1.1704362266
 C        -5.3573726664        2.2262778386       -1.9064577338
 C        -5.4219689941        3.4257931495       -3.0874725438
 C        -4.8111374080        3.0096945103       -4.4016118733
 O        -3.8571535486        2.2638285295       -4.4136789892
 C        -5.4652453883        3.5991633947       -5.6864154060
 C        -6.7725053921        2.7404734643       -6.0012751700
 O        -7.6946994997        2.8126405468       -5.1521254260
 C        -7.1823827778        1.8683370271       -7.2702820881
 C        -8.6500919786        1.5278983956       -7.1594049695
 C        -9.4617012551        2.7802728367       -7.3654417548
 O        -8.9283248463        3.7501253710       -7.8433653817
 C       -10.9708641393        2.7494495398       -6.8412340505
 C       -10.9676752682        3.2589395296       -5.4472095338
 O       -10.1211675798        2.7585477241       -4.6471245372
 C       -11.8975435355        4.4411558788       -4.9314239766
 C       -12.3516576409        4.0942380316       -3.5064076468
 C       -13.0137924022        5.3818264708       -2.5874554754
 O       -14.0910960825        5.7992711548       -2.9106005387
 C       -12.0642783488        6.0417004716       -1.4140227337
 C       -11.3291036431        4.9687140035       -0.8253177033
 O       -10.2035020488        4.7640137047       -1.2334316030
 C       -11.8964999638        4.0137881377        0.1523641936
 C       -11.9710490860        4.4150416426        1.6000305395
 C       -12.5461881600        3.2015112399        2.6810365777
 O       -11.7774083994        2.3098186392        2.8062063174
 C       -13.7765369129        3.3916172824        3.6040371247
 C       -13.2262852588        4.1422292915        4.8710315737
 O       -13.9595068744        4.9253459604        5.4881948584
 C       -11.8368011888        3.8034742037        5.4658449712
 C       -11.7006066297        4.0162963824        6.9591233250
 C       -12.3109740079        2.8119219873        7.6714420988
 O       -12.3751242928        1.7465122096        7.0969623136
 C       -13.2461796328        2.9949037750        9.0043457394
 C       -12.2000132434        3.4941509514       10.0478479348
 O       -11.4232764277        4.4314890433        9.7528409080
 C       -11.8580643797        2.6371711348       11.3490232721
 C       -14.2574617476        4.2453806755        8.7418057599
 C       -14.0185813140        1.6868627409        9.3276522958
 C       -14.8503501246        4.2994533817        2.9258969987
 C       -14.4284016459        2.0086983052        3.9712729546
 C       -11.1662168347        7.1692804606       -2.0340424391
 C       -13.0263114463        6.7398828225       -0.5341544041
 C       -11.9628376702        3.4021079174       -7.9182845517
 C       -11.3119967296        1.2662561551       -6.6222659087
 C        -5.8477182374        5.0992229125       -5.4539112776
 C        -4.4185739426        3.3302551197       -6.8950081488
 C        -6.9497646014        3.0477604707        1.6584110997
 C        -4.5720436114        3.1299420837        0.9864190858
 H        -7.5192077746        0.2237085410        2.0546305649
 H        -6.2007552220        0.8645078653        2.9302298912
 H        -5.8912104635       -0.6206151502        2.0895225674
 H        -5.6604397817        1.1975122704       -2.2292330579
 H        -4.3015806477        2.1376173822       -1.7495029934
 H        -4.7878843110        4.3088535218       -2.7755138271
 H        -6.3929853345        3.7706096311       -3.2956233779
 H        -6.5370438687        1.0026741671       -7.4246514047
 H        -7.2056617738        2.3485653259       -8.3169229009
 H        -8.8503562832        0.9898068147       -6.2827356890
 H        -8.8370259909        0.7369875402       -7.9482814096
 H       -12.8127432533        4.5719221111       -5.5331130586
 H       -11.2375146872        5.3715268949       -4.9294698987
 H       -11.5589214285        3.7204860946       -2.7842659481
 H       -13.1180794650        3.3595703456       -3.5443722162
 H       -11.2884136558        3.0983073011        0.1679441756
 H       -12.8508966673        3.6833747531       -0.2300004049
 H       -12.5974344032        5.3383250602        1.6665264702
 H       -10.9955370592        4.4715403750        1.9273949865
 H       -11.0523483898        4.1747457204        4.8439692489
 H       -11.5884238220        2.7970729075        5.2670883454
 H       -12.1374175394        4.8732863023        7.3364335793
 H       -10.5435069575        4.0668912102        7.0365498255
 H       -12.7445253546        2.5776267012       11.9569153183
 H       -11.1885290006        3.1744974932       12.0423638209
 H       -11.4331178108        1.6289485362       11.2618887287
 H       -14.9026985106        4.4254211754        9.6138289351
 H       -14.8744967478        4.0503607791        7.7979680634
 H       -13.5003042623        5.0044424050        8.6080765678
 H       -14.6124612998        1.7898469139       10.2883782434
 H       -13.3904098304        0.8593562410        9.4831891953
 H       -14.6402476064        1.3491918992        8.5334209434
 H       -14.7017886281        5.4100849056        3.1956846471
 H       -15.8594426254        3.9389458846        3.1002054798
 H       -14.7936143271        4.0242138310        1.9370094545
 H       -14.7108818087        2.1352476648        4.9786821032
 H       -13.7512371354        1.1100058830        4.1135930445
 H       -15.1920284468        1.7899257835        3.2280108523
 H       -10.4231889093        6.6227613159       -2.7493087124
 H       -10.5068712276        7.7693016826       -1.4509361948
 H       -11.8645288784        7.7487890745       -2.5654866888
 H       -12.6639795408        6.9996347038        0.4831610209
 H       -14.0088044618        6.3055855397       -0.4065168545
 H       -13.4339541182        7.6715551257       -0.9578807640
 H       -11.9811374037        4.4385662471       -7.5690890886
 H       -12.9337262639        2.9470538263       -7.8689287226
 H       -11.7237509976        3.2137588374       -8.9632031980
 H       -11.1617723981        0.6561497215       -7.5338465969
 H       -12.3313074316        1.0898032346       -6.2321162859
 H       -10.7028641862        0.9836380503       -5.8960727980
 H        -6.8057993849        5.1781053905       -5.0869356069
 H        -5.7473413493        5.6095247187       -6.3587333086
 H        -5.3358681383        5.6430654585       -4.6650235005
 H        -3.4616814712        3.6323382581       -6.8388342296
 H        -4.9237425416        3.5009828627       -7.8210918875
 H        -4.3728585899        2.2601853038       -6.8256874250
 H        -7.1038140564        4.1513644656        1.5647842869
 H        -6.5919785179        2.8384029296        2.5908866646
 H        -8.0237557819        2.8146010070        1.5681760498
 H        -4.1529898437        4.1002997869        0.6346482980
 H        -3.7494322991        2.4242590391        0.6254242152
 H        -4.5812604102        3.0015010184        2.0267259005
 Na       -8.4586459394        3.8655224272       -3.2861011746
