117

 C        -6.3351648239        0.1106388353        2.2404336657
 C        -5.6707850264        0.8461527827        1.0132052294
 O        -4.8761975803        0.4325946061        0.2162015666
 C        -5.9483550619        2.3687250451        0.8509342506
 C        -6.3665900371        2.6500834515       -0.7903628663
 O        -7.4736559106        3.0864469233       -1.1593783440
 C        -5.3519086452        2.3178388801       -1.8773098297
 C        -5.2279089445        3.5043943252       -2.9531941515
 C        -4.7907618871        2.9118948923       -4.3389491298
 O        -3.8993465033        2.1335818251       -4.5375700857
 C        -5.5764097861        3.4724564283       -5.7472584687
 C        -6.8444534783        2.6957988836       -6.0314284808
 O        -7.6972943459        2.6702773737       -5.1543714323
 C        -7.0811750338        1.8494702894       -7.2973151746
 C        -8.5944425427        1.4883499445       -7.2965561163
 C        -9.4341314149        2.6997191263       -7.4087263094
 O        -9.0217726044        3.8223758286       -7.7458998853
 C       -10.9674620975        2.6934625630       -6.9535296758
 C       -10.8342306187        3.3414063507       -5.5276066129
 O       -10.1980090464        2.6650536226       -4.7765929201
 C       -11.8819722386        4.4778956949       -5.0273639416
 C       -12.1628254729        4.2513929087       -3.5454082452
 C       -12.8707637526        5.4604327797       -2.7118825982
 O       -13.9853129124        5.7341346108       -2.9943467745
 C       -12.1591949307        6.1052535837       -1.4914157280
 C       -11.1541786922        4.9486730334       -0.7409022161
 O       -10.0746502503        4.7483032591       -1.2230718144
 C       -11.9960463859        3.9649795802        0.2662033555
 C       -11.8814746744        4.3458466852        1.7755239725
 C       -12.4864285570        3.2502270866        2.7274440183
 O       -11.8226807789        2.1766682626        2.7605164915
 C       -13.7245966738        3.4809907358        3.6112450517
 C       -13.3160364993        4.1894805991        5.0367720731
 O       -14.1042579326        4.8237740479        5.6995669306
 C       -11.7536237852        3.9996381453        5.4549768180
 C       -11.6852739969        4.0486720634        6.9960235092
 C       -12.5657357130        2.9410269325        7.5649948366
 O       -12.3791363531        1.8249699521        7.1498779354
 C       -13.2374872581        3.1889800407        8.9450670013
 C       -12.1263638590        3.4366532087        9.9614691694
 O       -11.2820606741        4.3338212088        9.7392047852
 C       -12.1419803077        2.7627647816       11.3460376646
 C       -14.2341181046        4.3980409584        8.6460499571
 C       -14.2103145238        2.0533565942        9.4078971373
 C       -14.7234963916        4.3373955136        2.8892756877
 C       -14.2485712204        2.1194554123        4.2261646868
 C       -11.1623766866        7.0853307741       -2.1223924043
 C       -13.1270646894        6.9455118748       -0.4481529654
 C       -11.8736336413        3.3682821167       -8.0643612676
 C       -11.5865289596        1.2383726762       -6.7963770577
 C        -5.8191810971        4.9787737215       -5.5020353529
 C        -4.6078968402        3.2251657126       -6.9972551685
 C        -6.9630963730        2.9441260590        1.9035652913
 C        -4.6291226621        3.1247454165        1.0008043806
 H        -7.2884183315        0.5736137711        2.3004241693
 H        -5.7802546133        0.3772333203        3.1535656563
 H        -6.3385142465       -0.9881148876        2.0071778072
 H        -5.5614887732        1.3824895345       -2.3212618075
 H        -4.3308988601        2.2048287028       -1.5166421716
 H        -4.6282870862        4.4318436954       -2.6573921518
 H        -6.2826077443        3.8450276091       -3.1917208714
 H        -6.4182833955        1.0839784806       -7.3895642798
 H        -6.9719356461        2.3997545574       -8.2292472609
 H        -8.8090749064        0.9778754961       -6.4263700868
 H        -8.9165700948        0.7691587751       -8.0631563561
 H       -12.8222613787        4.3155443821       -5.5772691971
 H       -11.4426169515        5.4607104450       -5.2464612116
 H       -11.2914645976        3.9486113561       -2.9413805073
 H       -12.9192659071        3.4495422004       -3.4714328477
 H       -11.8013681550        2.9134828761        0.2616719922
 H       -12.9916461398        4.1005859907       -0.1216698164
 H       -12.4970305688        5.2638946906        1.9513459913
 H       -10.8231599605        4.3962800466        2.0044963332
 H       -11.1439493596        4.7256779797        4.8648530329
 H       -11.2598856777        3.0928358126        4.9634209658
 H       -11.9293403263        4.9934222241        7.3967232643
 H       -10.6431604757        3.7248753816        7.3052758877
 H       -13.0379250807        2.8434305660       11.9585639499
 H       -11.2722472048        3.1097970081       12.0142793501
 H       -11.9045516190        1.7046022271       11.2238502600
 H       -15.1920152404        4.0788610328        9.2367078919
 H       -14.4897483440        4.2648359008        7.5748851800
 H       -13.8263619799        5.3311510085        8.8743789270
 H       -14.6152611572        2.2279788061       10.4155095105
 H       -13.7608695810        1.0305652437        9.4413164809
 H       -15.0204759781        1.9344137619        8.6624976284
 H       -14.4754712914        5.4130275906        2.9354909030
 H       -15.7162657418        4.1431222467        3.2531306668
 H       -14.8875448443        3.9097036908        1.9145356980
 H       -14.0369456646        2.0360184437        5.2672657584
 H       -13.7116566687        1.2721534145        3.8645642311
 H       -15.2789086852        2.0170963798        3.8119465907
 H       -10.2617519013        6.4419844916       -2.3455904709
 H       -10.7369169413        7.8225872277       -1.4594852792
 H       -11.5471775712        7.6077732964       -3.0197469352
 H       -12.4872761818        7.5743026318        0.2202066883
 H       -13.8785537520        6.4108988687        0.1896072821
 H       -13.8884753121        7.6535021004       -0.8634902021
 H       -11.6985908511        4.4317121720       -8.0833731501
 H       -12.9077602263        3.0327994051       -7.9435059405
 H       -11.6553597364        2.8015183971       -9.0079194629
 H       -11.4116673564        0.6545335834       -7.6230211357
 H       -12.6162457185        1.2198847041       -6.5594966529
 H       -10.9593300956        0.8205052648       -5.8524591522
 H        -6.5895668023        5.1488224262       -4.7511854535
 H        -5.8786412651        5.5959195573       -6.3647949584
 H        -5.0073483673        5.4117797749       -4.9137821353
 H        -3.6749662455        3.7394684424       -7.0331164265
 H        -5.1846678062        3.3085319166       -7.9361416275
 H        -4.3794682966        2.1771203733       -6.9735345678
 H        -7.0798002464        3.9837373804        1.8785984842
 H        -6.4809925904        2.7331899781        2.9709977166
 H        -8.0293851434        2.6786375017        1.8750323804
 H        -4.6023227183        4.1247336010        0.7073379651
 H        -3.9263741965        2.6770251247        0.2467031594
 H        -4.1874686982        2.9259841055        2.0236207318
 Na       -8.4880703374        3.8407611412       -3.3526364774
