117

 C        -6.1332089789       -0.0463933889        2.1196595161
 C        -5.6257967299        0.8339224782        1.0025415526
 O        -4.9154737219        0.2381892490        0.2279041223
 C        -5.9421976858        2.4117219259        0.8089264013
 C        -6.4249059785        2.6439926504       -0.6590206335
 O        -7.5399299382        3.0096977192       -0.9593914223
 C        -5.3286047439        2.4260430938       -1.8392441813
 C        -5.0997557148        3.3476478863       -3.0055869669
 C        -4.8415558182        2.7983654625       -4.4998409846
 O        -3.9513485285        2.0051225658       -4.5258243016
 C        -5.5093345285        3.3340294530       -5.7501233231
 C        -6.8933600736        2.6137021282       -5.9104419354
 O        -7.7090722193        2.5747213829       -5.0438007230
 C        -7.0460006206        1.9269476096       -7.1950519926
 C        -8.5435865511        1.4396782233       -7.5196401963
 C        -9.5016905693        2.7079053880       -7.4957673718
 O        -9.0516167139        3.8140503850       -7.6996542048
 C       -11.0305053217        2.5582291218       -7.0749958273
 C       -11.1192897444        3.2132328728       -5.5133822174
 O       -10.2854225613        2.8381496871       -4.7480137780
 C       -11.8518570475        4.4421408417       -5.1036034581
 C       -11.9640315425        4.4285936285       -3.5184010271
 C       -12.8241133907        5.3687042101       -2.7743071873
 O       -13.9336978348        5.7584882904       -3.0765068584
 C       -11.9389957803        6.0957546980       -1.5062112480
 C       -11.3442486194        4.9899077844       -0.7511023576
 O       -10.1960175469        4.6347620227       -1.0142708554
 C       -11.9919266733        4.0559675930        0.2907760393
 C       -11.7669340926        4.4289277261        1.8743184331
 C       -12.2919035832        3.2128818376        2.7667317492
 O       -11.9207726354        2.0493408084        2.7334275865
 C       -13.6035344599        3.5639786338        3.6653482646
 C       -13.2231222600        4.3493963841        5.0187790575
 O       -14.1392165745        4.7040466798        5.6860775525
 C       -11.8291103166        4.2463407888        5.4793058684
 C       -11.6349013618        4.1398430588        7.0282730049
 C       -12.4504794636        2.8507948264        7.6597214573
 O       -12.5397555296        1.7478095923        7.1344045179
 C       -13.4033008615        3.4050173406        8.8780310465
 C       -12.1616744758        3.5999279999       10.0121533945
 O       -11.1915539689        4.2084670846        9.7264206466
 C       -12.3644546850        2.8960067575       11.2847324601
 C       -14.2312406705        4.7233977013        8.7569721713
 C       -14.2959869567        2.2335789720        9.3787614448
 C       -14.6930204396        4.3541325324        2.9161027842
 C       -14.0841984717        2.1806639616        4.3041964931
 C       -11.0688979057        7.1391179084       -2.2094348382
 C       -12.9656100216        6.8010299325       -0.6427301773
 C       -11.7550796759        3.4569626562       -8.1229512185
 C       -11.7480270511        1.1825078195       -6.9541914735
 C        -5.7992117233        4.8719043842       -5.6915869807
 C        -4.5948693380        3.2517608024       -6.9662947664
 C        -7.0344008945        2.9370567594        1.8722533206
 C        -4.6448802439        3.1931415536        1.0575050674
 H        -7.0000385695        0.4834751916        2.5463049579
 H        -5.2815089845       -0.1588820364        2.9239354329
 H        -6.3458155307       -0.9705731481        1.5934423908
 H        -5.5539847858        1.4378242876       -2.1852633497
 H        -4.3167408465        2.2475530348       -1.4306698756
 H        -4.1536665560        3.9059001066       -2.8929864115
 H        -5.9114124857        4.1564793904       -2.8944076523
 H        -6.3730415438        1.0422876097       -7.0718588244
 H        -6.6339634352        2.4179912735       -7.9703360229
 H        -8.7147593979        0.6911097582       -6.6557547120
 H        -8.7199598695        0.8517421455       -8.3769502656
 H       -12.7905690579        4.5269282661       -5.6568757861
 H       -11.1229921949        5.1376660239       -5.4450500572
 H       -11.0085402252        4.5658701545       -3.0446662385
 H       -12.3390640751        3.3817625666       -3.2533694696
 H       -11.5046133932        3.0846492559        0.3156431273
 H       -13.0453508102        3.9046918609        0.0056559477
 H       -12.4030107407        5.2356029474        2.1656521503
 H       -10.6378539818        4.6273385521        2.0544822777
 H       -11.2051861384        5.1327655087        5.0490661855
 H       -11.3050886397        3.5158516179        4.7563350659
 H       -12.2766424452        5.0531148642        7.4331078943
 H       -10.6186704316        4.2327217854        7.2546131682
 H       -13.2832183131        3.1144884173       11.9138971622
 H       -11.5296142564        2.8943913126       11.9458420591
 H       -12.4471864845        1.8299071974       10.9662296789
 H       -15.0586263766        4.4824381295        9.3546814088
 H       -14.5093050649        4.8875251059        7.7506562929
 H       -13.6150390030        5.5818890432        9.1630695078
 H       -14.6000644550        2.3326371342       10.4033994834
 H       -13.7194103142        1.2345651417        9.3486394719
 H       -15.1926842895        2.0191552832        8.7282753249
 H       -14.3239384191        5.2949672102        2.6231894221
 H       -15.5680470457        4.5206205222        3.5655963569
 H       -15.2195583882        3.7391996783        2.0807158350
 H       -13.4396131425        1.7398430137        5.1339930841
 H       -13.9911271493        1.4896792535        3.5231859483
 H       -15.1343240979        2.3059644618        4.3078647669
 H       -10.1336220264        6.7909863595       -2.4331025553
 H       -10.8903076150        7.9314070279       -1.4315460378
 H       -11.5655533883        7.6387722209       -3.0996294115
 H       -12.7022639781        7.8012482432       -0.2617051106
 H       -13.4419652831        6.2221767929        0.1699085147
 H       -13.8953224801        7.0031949859       -1.1775936930
 H       -11.0561967039        4.2798105579       -8.3435473830
 H       -12.8365501674        3.6761391440       -7.8965027160
 H       -11.8689998203        2.7617185343       -8.9387765902
 H       -11.7255522837        0.5720666242       -7.8818406283
 H       -12.7974515752        1.4057243278       -6.7446088416
 H       -11.3563722750        0.6015301632       -6.1053415903
 H        -6.3359900596        5.0833699007       -4.7238867432
 H        -6.1889144871        5.3487057131       -6.6342755609
 H        -4.9299647515        5.4834737678       -5.4783780672
 H        -3.7472009240        3.9952791963       -6.6034767488
 H        -5.0689174002        3.5942454574       -7.8921336799
 H        -4.1152853364        2.2734347782       -7.2560085885
 H        -7.3354834641        3.9967210479        1.9416625677
 H        -6.5861426607        2.7163485196        2.8723711351
 H        -8.0035407572        2.4413438315        1.7885656115
 H        -4.9112245667        4.2359451407        0.9617463704
 H        -3.9250529850        3.1097463274        0.3174701599
 H        -4.1544413796        2.9423301716        2.0344518925
 Na       -8.6113089470        3.7491088385       -3.2264975793
