117

 C        -6.0925790296       -0.1067110742        2.1782876475
 C        -5.5751234531        0.7901716982        0.8853650480
 O        -4.8811108885        0.2573651382        0.0418601326
 C        -5.8589345488        2.4147726014        0.7108082855
 C        -6.3634650229        2.6904054424       -0.6926102336
 O        -7.5406144356        2.9757844526       -0.8970287384
 C        -5.3799868044        2.3340582542       -1.8479533172
 C        -5.1543670825        3.3589751388       -2.9226158655
 C        -4.7029193967        2.7177690448       -4.3449392879
 O        -4.0276793102        1.7388799907       -4.5921407544
 C        -5.4256507542        3.4257347024       -5.6817512921
 C        -6.8470745301        2.5089053765       -5.8727174066
 O        -7.6172477893        2.5350479765       -4.9182306157
 C        -7.1672456534        1.7582906626       -7.2277530514
 C        -8.6245421301        1.3980186658       -7.5770237582
 C        -9.5557921001        2.6424367339       -7.3455571313
 O        -9.0923213567        3.7162601636       -7.6581903013
 C       -11.1366277432        2.5760891784       -7.0568536486
 C       -11.0785743430        3.2655304453       -5.6469806102
 O       -10.3258228085        2.6992975647       -4.8052426286
 C       -12.0540046439        4.5066967347       -5.1655387640
 C       -11.7350082385        4.4816245519       -3.6697086861
 C       -12.6658223317        5.4939654946       -2.8831221404
 O       -13.8114044977        5.7245137064       -3.1274912918
 C       -12.0045751069        6.0916150601       -1.5544343222
 C       -11.2318289652        4.8892585009       -0.6784547265
 O       -10.0912369233        4.5131476713       -0.9895870459
 C       -12.0416775604        4.1131039895        0.4092140001
 C       -11.6815955042        4.3688756125        1.8800306730
 C       -12.3578542955        3.2632178180        2.7272809623
 O       -11.8805608483        2.2011384301        2.5713448326
 C       -13.5540371595        3.5498555048        3.7085890030
 C       -13.1403386107        4.3225429821        5.0523281523
 O       -14.1375456855        4.7674684744        5.5885789665
 C       -11.7238888822        4.4332251920        5.5729857638
 C       -11.7496944936        4.1550340602        7.0317338703
 C       -12.7273670929        3.1678165960        7.5643434987
 O       -12.6254561689        1.9962159953        7.2759209886
 C       -13.3706629512        3.5047675851        8.9334282462
 C       -12.2318848583        3.5857909416       10.0185221010
 O       -11.2092547760        4.1502679851        9.7348831021
 C       -12.5255536808        2.9769569412       11.3729445422
 C       -14.0095598128        4.8606403691        8.9018703140
 C       -14.3669663480        2.3737520751        9.1931532664
 C       -14.6223118268        4.2423496884        2.9682641340
 C       -14.0141235611        2.2038018592        4.2472721189
 C       -10.9635045130        7.0685420727       -2.2055502286
 C       -13.1246477087        6.8221482465       -0.7368396361
 C       -11.7802436467        3.6041820327       -8.0899189767
 C       -11.7254538635        1.1886573983       -7.1053990435
 C        -5.9213106813        4.9113661062       -5.7057426895
 C        -4.4584556779        3.1881995326       -6.8887316302
 C        -7.0585110685        2.7701452729        1.6298784279
 C        -4.6677737044        3.2580705937        1.2258242403
 H        -6.7020370879        0.5408057195        2.8905260231
 H        -5.1416112622       -0.3255787495        2.6324437785
 H        -6.5660110428       -0.9942988170        1.7577815680
 H        -5.8601087060        1.4023044386       -2.3099531852
 H        -4.4326401493        1.9359236638       -1.4746893985
 H        -4.4076119511        4.1205697766       -2.7131752247
 H        -6.0616744769        3.9745417303       -2.9589892469
 H        -6.5223715182        0.8315754598       -7.5042296054
 H        -6.8393582567        2.5074940857       -8.0229468530
 H        -8.7848619006        0.2937550061       -7.3103323278
 H        -8.7636625469        1.3681415489       -8.6987319047
 H       -13.0590690972        4.2199657439       -5.4296581538
 H       -11.7171193835        5.4504202505       -5.5815277373
 H       -10.6799369666        4.8715105774       -3.4971441040
 H       -11.8501105040        3.4545306754       -3.2973972887
 H       -11.9627433699        2.9960492189        0.3928502768
 H       -13.1086990815        4.4543118956        0.2257393650
 H       -11.8879904268        5.4120660182        2.1510091613
 H       -10.6098041095        4.1125297844        2.0624987307
 H       -11.1216385299        5.3938134990        5.4521534825
 H       -11.0912912528        3.8400443934        4.9082963006
 H       -11.8180222096        5.1133869966        7.5732214747
 H       -10.8292087501        3.5639908843        7.2673472412
 H       -13.2979101149        3.6063702534       11.8395295762
 H       -11.6783752049        3.1127290673       11.9979125669
 H       -12.8213813818        1.9179235302       11.5073882299
 H       -14.7161468636        4.9352054567        9.6399629005
 H       -14.3837509045        4.9938089450        7.9019518970
 H       -13.1529277045        5.5567927990        9.0186649809
 H       -14.9532195185        2.5963295652       10.1204161514
 H       -14.0749409784        1.3307941533        9.2758252338
 H       -15.0516993899        2.4504973166        8.3394041853
 H       -14.2045433743        5.0618481893        2.2667098075
 H       -15.3406717569        4.7801655996        3.6547404778
 H       -15.2986957321        3.5410647692        2.4560720876
 H       -13.1719626352        1.5019778767        4.3918376935
 H       -14.6646169541        1.7697990251        3.3980732330
 H       -14.7510311417        2.4699537268        4.9501626673
 H       -10.0610915760        6.5084765001       -2.5127018443
 H       -10.6493450266        7.7492368712       -1.4087831811
 H       -11.3329057249        7.6433844152       -3.0397145294
 H       -12.9206430889        7.8807608973       -0.5856244035
 H       -13.3190751885        6.3147881149        0.1676792570
 H       -14.1198617811        6.8721119937       -1.1314387662
 H       -10.8958572167        4.2136786366       -8.4200459778
 H       -12.6645602531        4.1114388604       -7.6846665257
 H       -12.1506772690        2.9660993367       -8.8747744929
 H       -11.6153531104        0.9700425507       -8.2340770656
 H       -12.8466910088        1.2755770433       -6.9928861782
 H       -11.3183688989        0.4731269529       -6.5435693361
 H        -6.3398382551        5.2414569879       -4.7434617398
 H        -6.5460955792        5.0802126594       -6.6293461693
 H        -5.1530005026        5.7280452152       -5.8457432236
 H        -3.5377087487        3.5646671274       -6.4201597174
 H        -4.6732240608        3.6607241163       -7.8942081283
 H        -4.2984902650        2.0733858686       -7.1884785947
 H        -7.4726045845        3.8421417862        1.5233155496
 H        -6.8156433997        2.7397712072        2.5919530669
 H        -7.9058462963        2.1184447799        1.3555208887
 H        -5.0474600885        4.3115393282        1.1372814499
 H        -3.7692401932        3.2474081515        0.6345982251
 H        -4.3952131443        2.9923800472        2.1807780301
 Na       -8.7379712276        3.5877550848       -2.8832961805
