117

 C        -5.3242478700       -0.2393061437        2.1580545361
 C        -5.2973363493        0.5905423281        0.8686321266
 O        -4.9930767538        0.0634516228       -0.2088692280
 C        -6.0433366724        2.0664698487        0.7700233133
 C        -6.2780954357        2.4168031825       -0.8273421407
 O        -7.4860180176        2.2884224875       -1.2356584172
 C        -5.0111955451        2.3556784904       -1.6555450506
 C        -5.2267822756        3.2753874040       -2.9991279228
 C        -4.7965412669        2.4217021844       -4.3299053406
 O        -4.0903385868        1.4181044610       -4.3118693738
 C        -5.3818749312        3.0309739610       -5.6772197961
 C        -6.9770550022        2.3699916192       -5.7855871822
 O        -7.7841820090        2.5568925284       -4.9231754711
 C        -7.3024617621        1.4053771927       -7.0165231396
 C        -8.8071951529        1.1986318800       -7.2720942035
 C        -9.5120896045        2.6843019329       -7.3564670090
 O        -8.8380950614        3.6085719530       -7.6882517141
 C       -11.0765900110        2.8849118655       -6.9248365027
 C       -11.2241055381        2.7413312270       -5.3573059009
 O       -10.8428383756        1.8280734201       -4.7135371282
 C       -12.0293784492        3.9846324189       -4.8091862372
 C       -11.3674797335        5.2265853468       -4.1833630075
 C       -12.2122489961        5.8029887496       -3.0426546780
 O       -13.4490812400        5.7560806213       -3.1520257638
 C       -11.6391509902        6.2319268463       -1.6959961910
 C       -11.4441167771        4.7551758348       -1.1988273870
 O       -10.6186088601        3.9470644769       -1.5775645877
 C       -12.2455743135        4.1067943485        0.0001495576
 C       -11.9847989494        4.6304751272        1.5355183310
 C       -12.1964058958        3.4471814114        2.6089119268
 O       -11.3283253484        2.5866314790        2.7116092869
 C       -13.3813627783        3.5546389631        3.6274281287
 C       -12.8430441435        4.5456408286        4.7772959689
 O       -13.3258665958        5.6445122325        4.6903172049
 C       -11.6648263324        4.1631661666        5.5356879615
 C       -11.7261932000        4.7117917979        7.0091503468
 C       -12.9574892475        4.0652960946        7.7571724530
 O       -13.3600535032        3.0507848333        7.2495879806
 C       -13.5263692128        4.4662437871        9.1375073055
 C       -12.5504362035        3.7337999108       10.3283244247
 O       -11.4557798517        3.4124987635       10.1433293909
 C       -13.1036764707        3.7106221959       11.7677161721
 C       -13.4474434605        5.9629246826        9.4134021863
 C       -15.1458513809        3.9914491892        9.2427335252
 C       -14.6395673011        4.1077479341        2.9838857224
 C       -13.6086761513        2.1685382177        4.0265915088
 C       -10.2789606204        6.8490671697       -1.7623151733
 C       -12.6038714393        7.1474360334       -0.7590560759
 C       -11.6733987327        4.1933084811       -7.5924274837
 C       -11.9755453988        1.6700951402       -7.3635833707
 C        -5.6400325673        4.6006458669       -5.6917818573
 C        -4.5136396843        2.6517288264       -6.8675418268
 C        -7.4810442556        1.9755667176        1.6098471591
 C        -5.0793820798        2.9025697968        1.5343528057
 H        -4.7798884153       -1.1434643252        1.9920213844
 H        -6.4188010102       -0.3838250815        2.1719536510
 H        -5.0522055910        0.3535051415        2.9385076933
 H        -4.7699607566        1.3554442339       -2.0778010414
 H        -4.0974337573        2.5592871422       -1.0143762940
 H        -4.9014647960        4.3014730287       -2.8843992930
 H        -6.3022216929        3.4826517595       -3.0077608853
 H        -6.8003600957        0.4054961580       -6.9113097781
 H        -6.9586152408        1.7723091825       -7.8771988499
 H        -9.2314263420        0.7276864193       -6.3210538627
 H        -9.1080735084        0.6399398675       -8.1230508675
 H       -12.6646162091        3.6001041738       -3.9298758160
 H       -12.6852696446        4.2910547932       -5.5962698261
 H       -11.2182937782        5.9374369815       -4.9570524227
 H       -10.3858326840        4.8897322227       -3.7148007446
 H       -11.9271069600        3.0343990210       -0.1257820905
 H       -13.3278174772        4.2170003772       -0.2218432308
 H       -12.5988169897        5.5151192943        1.6794767658
 H       -11.0382900435        5.1741195378        1.6403239105
 H       -10.8315213269        4.6278419580        5.1868788736
 H       -11.4837453577        3.1546783926        5.5748059857
 H       -11.9499585879        5.8758859455        6.8910010377
 H       -10.9044454502        4.3879752527        7.5398676934
 H       -14.0578842345        4.1287388787       12.1018617631
 H       -12.3529910811        3.8585288057       12.4407611257
 H       -13.4103286477        2.6943272366       11.8197048881
 H       -14.0403204968        6.2715704957       10.2400751316
 H       -13.7248685638        6.4914175707        8.5098558354
 H       -12.3252656464        6.2029434756        9.6559273726
 H       -15.5762110930        4.5388674862       10.0125183500
 H       -15.1672224648        2.9129959819        9.4434073995
 H       -15.7640614366        4.2301694058        8.4003141972
 H       -14.8881062554        5.1300981394        3.1138714940
 H       -15.5660183200        3.5427022035        3.2880759279
 H       -14.4471786580        4.0985685363        1.8296476091
 H       -14.6598277030        2.1661562443        4.5179647094
 H       -12.9568090791        1.8858860121        4.8027268364
 H       -13.6623108094        1.5590594851        3.0991235044
 H        -9.6522136203        6.1235275638       -2.0712553179
 H        -9.9492808368        7.1925766232       -0.7680182252
 H       -10.2693167780        7.6090628433       -2.5782705073
 H       -13.3103867140        7.7904798595       -1.2328875632
 H       -12.0444368772        7.6970593665        0.0173940565
 H       -13.3232311152        6.4718170653       -0.3373061286
 H       -10.9826775808        4.9893600481       -7.3697019157
 H       -12.6285549178        4.3408532127       -7.1146146871
 H       -11.5482859571        4.0034841204       -8.6328874292
 H       -11.6033719743        1.3238947045       -8.3797504121
 H       -13.0734462530        1.8890132803       -7.4096803871
 H       -11.7904273469        0.9738981230       -6.7049942171
 H        -6.1974479978        4.9155382362       -4.7982780881
 H        -6.2489454934        5.1330633062       -6.4406666244
 H        -4.7071559624        5.0633464327       -5.7250962762
 H        -3.4418375890        2.8135634349       -6.6572831155
 H        -4.6423138731        3.2331717076       -7.6748421321
 H        -4.6316458002        1.6496346716       -7.2187575538
 H        -7.9514884505        2.9827374582        1.5309832310
 H        -7.3909424715        1.7295711882        2.6109701974
 H        -8.1361656657        1.1549123066        1.2517216815
 H        -5.2223716806        3.9769628870        1.4981939623
 H        -4.1066629373        2.5846080966        1.2891043277
 H        -5.2282569915        2.7193884733        2.6548155554
 Na       -9.2099061757        2.2810802567       -2.9658283385
