117

 C        -5.2832390022       -0.1582411552        2.1485162295
 C        -5.5350616751        0.4416383630        0.7401258312
 O        -5.0009560113       -0.0256490209       -0.2379915642
 C        -6.0762528282        1.9265808722        0.7821170841
 C        -6.2679941349        2.1544597190       -0.7129933915
 O        -7.3297039080        1.9066976968       -1.2516612000
 C        -5.0795832083        2.3948807396       -1.5914060909
 C        -5.2581262677        3.1760097739       -2.9578555480
 C        -4.8519337382        2.5026934214       -4.1999330163
 O        -4.1117762174        1.5379843717       -4.1923734984
 C        -5.4923196505        2.9828165979       -5.6531814760
 C        -6.9025731175        2.3658343874       -5.8715387950
 O        -7.8788291931        2.6201237509       -5.1438964842
 C        -7.3144912011        1.3605393464       -6.9479360666
 C        -8.8504935181        1.2658646884       -7.0008415659
 C        -9.5889926070        2.5879963160       -7.3104264814
 O        -8.8908167181        3.5514027687       -7.6216714829
 C       -11.1135609025        2.8405646261       -6.9520586332
 C       -11.1916833451        2.8581693385       -5.3219509960
 O       -10.8618102770        1.8432103739       -4.7348547067
 C       -12.1360879938        3.7976484852       -4.4884922879
 C       -11.3994957608        5.1686922630       -4.1758608231
 C       -12.3489621393        5.8359453434       -3.0286749819
 O       -13.5307317819        5.9547789727       -3.2198532597
 C       -11.5395475646        6.0064942074       -1.6322296890
 C       -11.3345453998        4.6169706637       -1.0997753813
 O       -10.6543723077        3.9831320924       -1.9190274470
 C       -12.1886204845        3.9771136213        0.0313281429
 C       -12.0761994966        4.6490933566        1.4248532829
 C       -12.1627583346        3.6285023438        2.5394431330
 O       -11.2951013564        2.8531739383        2.7344091440
 C       -13.4280786001        3.5165911060        3.5454267117
 C       -12.8258200565        4.6620411979        4.6510974670
 O       -13.0865102974        5.8596159131        4.4640625150
 C       -11.6926532915        4.2429090427        5.6664876488
 C       -11.7591015328        4.6729426109        7.2255816439
 C       -13.0275431000        4.0056687436        7.8573216231
 O       -13.5265083431        3.0034622312        7.3438245568
 C       -13.5250695387        4.5803817418        9.2631385605
 C       -12.7190315344        3.8369580577       10.3191860249
 O       -11.6204010622        3.4145172732        9.9040387107
 C       -13.1693276977        3.8774074057       11.7702427858
 C       -13.2841564845        6.0651434361        9.5230876485
 C       -15.0952196692        4.3791911014        9.3501222207
 C       -14.6833620704        4.0365505181        2.8048793412
 C       -13.5227276109        1.9775393619        4.0340685170
 C       -10.0713253037        6.7075264741       -1.8404378806
 C       -12.3518709355        6.9971856411       -0.8061634023
 C       -11.4822498318        4.2574999109       -7.7185467944
 C       -12.1271931571        1.7740609904       -7.3474744808
 C        -5.6615769047        4.5031413488       -5.7326811113
 C        -4.4340134390        2.5304082593       -6.7606449540
 C        -7.4594698540        1.9147528478        1.4291434714
 C        -5.1717911880        2.9424196519        1.6371982810
 H        -5.0463888336       -1.1796053061        1.9097297713
 H        -6.0917208281       -0.0172879132        2.7405183892
 H        -4.4079037241        0.3804520757        2.5293372839
 H        -4.6573980451        1.4405711746       -1.8639436461
 H        -4.1943009800        2.8585909935       -1.1418163995
 H        -4.6266887130        4.0244611935       -2.8116766637
 H        -6.2304651787        3.7371354826       -3.0138159010
 H        -6.9426839699        0.4370270722       -6.7437815510
 H        -6.9667892357        1.6126826907       -7.9931678815
 H        -9.1650343796        0.9111295576       -6.0152596096
 H        -9.2650834736        0.6761103952       -7.7653857556
 H       -12.2886715007        3.3825514208       -3.4700222155
 H       -13.1117789753        3.8951095860       -5.0469096761
 H       -11.4754665341        5.7586185462       -5.0598468055
 H       -10.3457406893        4.9978220044       -3.9586780027
 H       -11.9642219755        2.9329988175        0.1062288443
 H       -13.2006485729        4.1058215480       -0.3723502951
 H       -12.5824978290        5.6216267648        1.5688924013
 H       -11.0114766217        5.0648597892        1.4398624692
 H       -10.7538426686        4.7614745383        5.4999154203
 H       -11.5703057294        3.1526086231        5.6929820695
 H       -11.7709876430        5.7849700269        7.2269472546
 H       -10.9304926413        4.2076380076        7.7722828523
 H       -14.0862820017        4.3305078072       12.0684584668
 H       -12.3126461204        4.2240465455       12.3101634613
 H       -13.3917647814        2.8486819272       12.0992277641
 H       -13.6049066217        6.3886643816       10.5294959523
 H       -13.8111671461        6.7242881715        8.7365975435
 H       -12.1766322517        6.2026640292        9.4530134492
 H       -15.5493946006        5.0411987358       10.1143594419
 H       -15.4072435086        3.3789190946        9.3323960759
 H       -15.4363508601        4.8186458880        8.4453504003
 H       -14.7338193755        5.1601416782        2.9808758791
 H       -15.5616101956        3.7221944816        3.3905721414
 H       -14.7948731255        3.9629458004        1.7622197018
 H       -13.9676019956        1.9965287955        5.0516632971
 H       -12.5094898156        1.4914040342        4.1979621883
 H       -14.2392659696        1.5836514260        3.3710811042
 H        -9.3565743223        5.9639682412       -2.2849909221
 H        -9.6558395177        7.0080278809       -0.8787945194
 H       -10.2112660032        7.5132932381       -2.5286513805
 H       -12.5422619253        7.9815523132       -1.3128155154
 H       -11.7348165353        7.2636012959        0.0589253152
 H       -13.3622518366        6.6456812714       -0.5447400632
 H       -10.5781200942        4.8823920939       -7.5805697719
 H       -12.3210881815        4.6835902447       -7.2375146914
 H       -11.4938583507        3.9863086011       -8.7156849688
 H       -12.1099560269        1.6721924489       -8.4060605183
 H       -13.0502895388        2.1704396548       -7.0725267038
 H       -11.9645278267        0.7552509426       -6.7955686619
 H        -5.9029952606        4.8825122564       -4.7872614734
 H        -6.3513640742        5.0393937193       -6.3189249694
 H        -4.6755749665        4.8465795854       -5.9563308967
 H        -3.4955954428        2.6796330184       -6.4569766782
 H        -4.4909390199        3.1886255792       -7.6250960968
 H        -4.4566704501        1.5269231231       -7.0828388999
 H        -8.0254676512        2.8804943610        1.1432335404
 H        -7.4797702581        1.6438296710        2.4513815878
 H        -7.9473667307        1.0343458246        0.9948978575
 H        -5.5615901942        4.0221014368        1.5719416083
 H        -4.1687357096        2.8324351432        1.2400891900
 H        -5.1903170054        2.7893440691        2.6890039538
 Na       -9.0883039358        2.3449385901       -3.0035600544
