117

 C        -5.1674640215       -0.2344040515        2.2815875146
 C        -5.3807937356        0.4121575874        0.7964215065
 O        -5.1138061983       -0.1804789695       -0.2096477874
 C        -6.1735580345        1.7488089033        0.6578564997
 C        -6.2968269591        1.9767838848       -0.8290472438
 O        -7.3643258380        1.7257715248       -1.3285670803
 C        -4.9743040357        2.5447747345       -1.6398791161
 C        -5.3707562924        3.2657108320       -2.8749525215
 C        -5.0511163522        2.4284525809       -4.1761999515
 O        -4.1591428828        1.6463541161       -4.1364169423
 C        -5.5557073676        2.8857252334       -5.5931165492
 C        -6.9740262592        2.3089994750       -5.8287869711
 O        -7.7449962184        2.8608904298       -5.0202322113
 C        -7.4189951492        1.3478572595       -6.9370426281
 C        -8.9179280057        1.1489819977       -6.8790062069
 C        -9.5348824895        2.5810589914       -7.1226924717
 O        -8.8963045212        3.4777122833       -7.6348998350
 C       -11.1326507096        2.8364893265       -6.8306225380
 C       -11.3692637883        2.8261044478       -5.3701822464
 O       -10.6465556007        1.9473217913       -4.8068959084
 C       -12.1565509961        3.6876365464       -4.4152047763
 C       -11.5780075976        5.1704510554       -4.2601509762
 C       -12.3057853455        5.8420958589       -3.1042495240
 O       -13.4272726640        6.1933383065       -3.1074442394
 C       -11.4239390943        6.0004903393       -1.6523167505
 C       -11.3236335511        4.4676767880       -1.2348277045
 O       -10.5658572599        3.6843201441       -1.8968703782
 C       -12.0791023857        3.9241597609       -0.0315902789
 C       -12.1022920440        4.6585549231        1.2951590024
 C       -12.0934074598        3.6456031402        2.4537910372
 O       -11.0815416644        3.0048924089        2.7053288830
 C       -13.3660403730        3.6104054890        3.5020043771
 C       -12.7657157575        4.7369781568        4.6214350751
 O       -12.9291458671        5.8892138980        4.3191776925
 C       -11.7546991673        4.2250560751        5.6713580651
 C       -11.9578274102        4.6807130368        7.1545885306
 C       -13.1394067410        3.9895906541        7.9130265773
 O       -13.7664305706        3.0328933569        7.4972006119
 C       -13.5433822070        4.7685765040        9.2030547431
 C       -12.7781845744        3.9273951113       10.3336107723
 O       -11.7484442900        3.3107762546        9.8948906164
 C       -13.1711072410        3.9293256434       11.7460545879
 C       -13.0933132557        6.2690149986        9.4702258209
 C       -15.1094215876        4.6354091164        9.4207198024
 C       -14.6756696016        4.0020974122        2.8251747206
 C       -13.4471275020        2.1788123927        4.0788674243
 C       -10.0344257342        6.5817463802       -1.9789851957
 C       -12.2687749247        7.0040865095       -0.7510501078
 C       -11.3719685012        4.2236212403       -7.5789837443
 C       -12.1583543573        1.8439157349       -7.4199960595
 C        -5.6391063539        4.4035813091       -5.6940340658
 C        -4.5281855220        2.3758992355       -6.6280757224
 C        -7.5954682026        1.8497260487        1.3165265085
 C        -5.3163733625        2.8802010041        1.4658489792
 H        -5.4313486562       -1.2526456928        2.0744881985
 H        -5.8801353374        0.2861427211        2.9452022437
 H        -4.0958334893       -0.1688398035        2.6396026007
 H        -4.4152889044        1.6924517536       -2.0024824440
 H        -4.2369448890        3.0785159784       -1.1350403068
 H        -4.9842573061        4.3026283096       -2.9092915163
 H        -6.4433995697        3.4900451545       -2.7711548764
 H        -6.8716139296        0.3989097722       -6.8806915726
 H        -7.1111496049        1.8012714808       -7.9621232803
 H        -9.1147221156        0.7891575113       -5.9309178767
 H        -9.5001049475        0.6402771456       -7.7085008768
 H       -12.1029388980        3.3065907094       -3.4210699133
 H       -13.2161416955        3.6618653168       -4.7563979070
 H       -11.9783215017        5.7763849150       -5.1184176247
 H       -10.5302653394        5.2103110569       -4.2307488296
 H       -11.6908214413        2.9487124466        0.1309839233
 H       -13.1411425106        3.7890228329       -0.2772270945
 H       -12.8801854547        5.4494900574        1.5335513070
 H       -11.2132224796        5.3019677701        1.3764747574
 H       -10.6619290455        4.6331413535        5.6475885606
 H       -11.7929574381        3.0767540460        5.7489348999
 H       -12.0607332893        5.6905758086        7.1388372784
 H       -11.0396371227        4.3063517813        7.7664963551
 H       -14.1085269256        4.4318663560       11.8925249778
 H       -12.3042852172        4.5040141902       12.2625504375
 H       -13.4093731087        3.0021381276       12.2979424218
 H       -13.1462301289        6.4576669977       10.6164349501
 H       -13.7376690990        7.0654024731        8.9805778465
 H       -12.0819238055        6.3493181635        9.2078949062
 H       -15.4242728389        5.0897692215       10.4129528082
 H       -15.4110935761        3.6319189106        9.1611546817
 H       -15.5763240050        5.2784455461        8.6544971205
 H       -14.7695240200        5.1217824609        2.6380053354
 H       -15.3426981972        3.8733867554        3.6618995685
 H       -15.0631546153        3.5779972535        1.9445883820
 H       -13.2228447184        2.2106399162        5.0844522274
 H       -12.6084610567        1.5346133927        3.6977227210
 H       -14.4980737238        1.8852437506        3.9143713118
 H        -9.4395382831        5.7562347203       -2.5485278322
 H        -9.4894257385        6.6567120194       -1.0522474817
 H       -10.0797429365        7.4999050382       -2.5259474046
 H       -12.0887980201        8.1100348667       -0.8849169112
 H       -11.9047732588        6.9129685419        0.2706984417
 H       -13.3791006326        6.8076964888       -0.8788274709
 H       -10.5534185891        4.9209094573       -7.4546174942
 H       -12.2911027282        4.5971617283       -7.2144201281
 H       -11.3743419877        3.7979174421       -8.5845708729
 H       -12.2897779194        2.0069977662       -8.4512884267
 H       -13.0705135738        2.0941044209       -6.8949004969
 H       -11.9227131874        0.7620639342       -7.1455108068
 H        -6.0868995750        4.9217892655       -4.8702222834
 H        -6.3078085960        4.6744362545       -6.4709958797
 H        -4.6823921649        4.8905629808       -5.9809784660
 H        -3.4806968173        2.6946209215       -6.4067508786
 H        -4.6901032189        2.8336679657       -7.6339774098
 H        -4.3920689417        1.3011370784       -6.6584064564
 H        -8.0701736055        2.7788568088        1.0596874369
 H        -7.4888642720        1.5294336359        2.4627649851
 H        -8.1947791804        1.0130137026        0.9920269274
 H        -5.8261421779        3.8382722879        1.5278764016
 H        -4.3079529446        2.9566451343        0.9480050171
 H        -5.2060058200        2.6452399397        2.4924403562
 Na       -8.9466817406        2.4270403087       -3.0300342745
