117

 C        -5.1107232081        0.0150836844        2.3135120856
 C        -5.4424654539        0.0932100210        0.7367804488
 O        -5.2464065955       -0.8215581907       -0.0167517246
 C        -6.2541723757        1.3596423668        0.5612027062
 C        -6.4164386096        1.7776851431       -0.9641413322
 O        -7.3754803696        1.4212623368       -1.5926530467
 C        -5.4968494627        2.8410125894       -1.4757757411
 C        -5.6018779746        3.4409025796       -2.9927471628
 C        -5.1341198420        2.5343163377       -4.0992005553
 O        -4.3736612314        1.6297063812       -3.9505829693
 C        -5.5686096729        2.7448187185       -5.6980946774
 C        -7.0161980164        2.3633677955       -5.6535659515
 O        -7.8739769126        3.0803707663       -5.0088860264
 C        -7.4867110508        1.1299222120       -6.3491185236
 C        -8.9464946037        1.2836246319       -6.7709754449
 C        -9.5237820463        2.6564185233       -7.1209921858
 O        -8.9509852818        3.4794519528       -7.8023224521
 C       -11.0611799669        2.8603352836       -6.7170432662
 C       -11.2831144369        2.7653156923       -5.1383647356
 O       -10.4595276012        2.2027309992       -4.3847528842
 C       -12.5437522586        3.5496421922       -4.4667758015
 C       -12.0413726925        5.0878608092       -4.4715449226
 C       -12.2658846666        5.8954984995       -3.0918707583
 O       -13.1141038540        6.6964932589       -3.0062042524
 C       -11.2493618478        5.7825482462       -1.8982139431
 C       -11.1526311202        4.3188910739       -1.3509707428
 O       -10.1912279094        3.5702219906       -1.6007452069
 C       -11.9916728532        3.7037291951       -0.3354354750
 C       -12.0051360093        4.4325618505        0.9886422409
 C       -11.9168109738        3.6731785593        2.3537963676
 O       -10.9444722723        3.0772201768        2.6737272419
 C       -13.0975674375        3.6130328917        3.4299238393
 C       -12.5916935780        4.6378455216        4.5710515774
 O       -12.6089204763        5.8106112191        4.1973905230
 C       -11.7272602949        4.3326180155        5.8884991825
 C       -12.4539709000        5.1945898734        7.0277243323
 C       -13.4466533347        4.4953660690        7.8803679934
 O       -14.1398478613        3.6392150496        7.3860558655
 C       -13.5954820473        5.0865658798        9.3516411124
 C       -12.8355117278        4.2073795673       10.3819826332
 O       -12.2950420090        3.1634105982        9.9334215742
 C       -13.1440796374        4.2727791531       11.8730486342
 C       -12.8482819435        6.3951903741        9.4625115814
 C       -15.0513810459        5.4189228936        9.6329039477
 C       -14.4169745763        4.2731255345        3.0869302995
 C       -13.3365829964        2.1767779462        3.9064143549
 C        -9.8492294292        5.9546151744       -2.4948440832
 C       -11.5878345463        6.8074158594       -0.8391647569
 C       -11.4684793026        4.2720216470       -7.3694844992
 C       -11.9123310998        1.6572395055       -7.4302230746
 C        -5.3351703550        4.2351928305       -5.9905607004
 C        -4.6683358477        1.8859918235       -6.6082333084
 C        -7.6936224351        1.0654681975        1.0041985190
 C        -5.6410151505        2.5891453049        1.3994885674
 H        -6.1015740523       -0.0057575066        2.5324584005
 H        -4.6507740219        0.8111826863        2.7952210034
 H        -4.6974588398       -0.9720946236        2.4801868644
 H        -4.4829878088        2.3365910254       -1.4815385148
 H        -5.3801279632        3.6891139736       -0.7552723866
 H        -4.8070753138        4.1493724943       -3.1428979429
 H        -6.5269051960        4.0499582605       -3.2076240291
 H        -7.5196517424        0.2731214688       -5.8527034383
 H        -6.8856891344        0.8183037816       -7.2541744895
 H        -9.6393195999        0.9587436733       -6.0445559502
 H        -8.9750605326        0.6525377375       -7.6393080218
 H       -12.8515615182        3.2992260622       -3.4447694713
 H       -13.5447170838        3.4929523052       -5.0293086257
 H       -12.5693606816        5.6775923012       -5.2318543156
 H       -10.9567709473        5.1270969321       -4.6944081490
 H       -11.6607876000        2.6647362002       -0.2686210776
 H       -13.0861740835        3.5874991785       -0.5480767250
 H       -12.9169365585        5.0428832674        1.1472211908
 H       -11.1425862158        5.1539248278        1.0521566740
 H       -10.8537162227        4.9069958343        5.7236789564
 H       -11.5502644355        3.3905167048        6.3391988536
 H       -12.8991127979        6.0725018271        6.5953456348
 H       -11.7764969675        5.4264047663        7.8846991116
 H       -13.9908349397        4.8396753336       12.0901563820
 H       -12.2523440587        4.6433520235       12.3665730035
 H       -13.2674593071        3.2669264601       12.2645814147
 H       -13.2881615922        7.0559658631       10.2573873133
 H       -12.9242035572        7.1429387578        8.6345360478
 H       -11.8693452970        6.2057976294        9.7563022286
 H       -15.0519689056        5.8196168096       10.6778462480
 H       -15.6385743955        4.5755649862        9.4766135102
 H       -15.3662919136        6.1382760726        8.9171221127
 H       -14.2176581967        5.3733216165        2.6980244854
 H       -15.2793050394        4.2395488871        3.8315597307
 H       -14.7384228418        3.8809661752        2.1978365311
 H       -12.6937629619        1.7998368836        4.6441186140
 H       -13.0801462648        1.6472748460        2.9072797585
 H       -14.3622070719        2.2399170170        4.1435310125
 H        -9.6189720411        5.1697827647       -3.3132166833
 H        -9.0765406958        5.9103850224       -1.7697366285
 H       -10.0000795707        6.8839794219       -2.8981322664
 H       -12.0922825945        7.6646680622       -1.2893088492
 H       -10.7346285507        7.3545740535       -0.6063641844
 H       -12.1941465908        6.3859113534       -0.0794908408
 H       -10.6775363890        4.8538046632       -6.9016206098
 H       -12.4418008251        4.5638828939       -7.0262834812
 H       -11.4727993327        4.1501989126       -8.4537853710
 H       -11.6416139445        1.7238119762       -8.4575686866
 H       -12.9297018378        1.8977720251       -7.2445962306
 H       -11.7559441435        0.5655157801       -7.0023207151
 H        -6.1683274685        4.9183320449       -5.8220728095
 H        -4.8603759442        4.4817170883       -6.9414627680
 H        -4.6486102091        4.6490140701       -5.1729202110
 H        -3.6720224153        2.1455764712       -6.6057542891
 H        -5.0746256889        2.1227293220       -7.5925915198
 H        -4.6781225415        0.8910668413       -6.3804726778
 H        -8.1680215128        2.0015357087        0.8025171542
 H        -7.6784501954        0.6647471629        2.1058927849
 H        -8.2417873351        0.3820874200        0.4538785973
 H        -5.9435069568        3.5561328321        0.8903946589
 H        -4.5431568011        2.6292814092        1.4276351843
 H        -6.0879878258        2.6163387622        2.3303734038
 Na       -8.7880651575        2.5745863705       -2.8307276584
