117

 C        -4.9721902172       -0.1732208398        2.3089955781
 C        -5.5562830004       -0.0456719442        0.8534396204
 O        -5.2881760027       -0.8457351249        0.0040706046
 C        -6.3711965478        1.4526452618        0.5199429111
 C        -6.4592464614        1.8186706003       -1.0134810801
 O        -7.3252084235        1.2724246446       -1.6619381348
 C        -5.4626894843        2.9162555100       -1.5384857051
 C        -5.5552682606        3.5055146303       -2.9449975104
 C        -5.0957824076        2.4703960604       -4.1515758821
 O        -4.4150003732        1.5206616442       -3.8261794146
 C        -5.4772262094        2.7383623825       -5.6591127503
 C        -7.0473595219        2.4056469261       -5.7538378607
 O        -7.8200255235        3.1865421866       -5.1443114935
 C        -7.5340077746        1.1002739046       -6.2626407769
 C        -9.0561672647        1.1320309823       -6.7186519764
 C        -9.5966094047        2.6497748252       -7.0905200564
 O        -8.9625860090        3.4016813083       -7.7507006750
 C       -11.0568372596        2.9729902100       -6.7134789041
 C       -11.3476234196        2.8867752885       -5.1353961779
 O       -10.6163635795        2.1914510065       -4.3782850536
 C       -12.4696232063        3.5398916052       -4.4515828425
 C       -12.1985182644        5.0710925708       -4.4068220717
 C       -12.2745305290        5.8315717911       -3.1234179487
 O       -13.1252483372        6.7465861395       -3.0028033413
 C       -11.1107176201        5.7858776028       -2.0393296429
 C       -11.1381335365        4.2256408351       -1.2527771809
 O       -10.0731351333        3.6060023141       -1.4892913922
 C       -12.2476820368        3.6529543839       -0.2379684003
 C       -12.0554874410        4.3926750771        1.0953009038
 C       -11.9283953251        3.5474546284        2.4095462136
 O       -10.8832416747        2.8920010094        2.6324077210
 C       -13.0618922875        3.6445249717        3.4164013876
 C       -12.4122440794        4.7393050511        4.5391850264
 O       -12.4907583911        5.8799495513        4.2172567414
 C       -11.9190115171        4.3019559280        5.8463816975
 C       -12.2246760115        5.3830587428        6.9314321892
 C       -13.4664724688        4.7948805246        7.8620247868
 O       -14.1837070159        3.9456849414        7.4626890535
 C       -13.6530340671        5.3432682779        9.3883730406
 C       -13.1093686910        4.0238091821       10.3868415375
 O       -12.3965530538        3.1756249438        9.8931812033
 C       -13.1307127147        4.3986593940       11.8877431043
 C       -12.7684313684        6.5778641077        9.7035479027
 C       -15.2115516988        5.5330845309        9.6395533394
 C       -14.4109402012        4.2715421519        2.9477105221
 C       -13.2560704843        2.1463363899        3.8523115448
 C        -9.6708512109        5.9386579592       -2.7710022723
 C       -11.2992372687        6.8756077303       -0.9727550979
 C       -11.5259448047        4.2439867774       -7.5155910934
 C       -11.8110631565        1.6955905079       -7.2408359020
 C        -5.2899098182        4.2328315799       -6.0447916750
 C        -4.5739406101        1.7866134851       -6.5768033867
 C        -7.7587716918        0.8816293963        0.8996398006
 C        -5.8715672365        2.4603401085        1.4874395695
 H        -5.6435350251        0.3834200551        2.8912090250
 H        -4.0743738543        0.4688223855        2.2040806288
 H        -4.7747941441       -1.1626331434        2.5371803106
 H        -4.4286002277        2.6627989015       -1.2668752569
 H        -5.7175340313        3.7253173559       -0.8886322636
 H        -4.9925797671        4.4467757019       -3.1416628390
 H        -6.6084883661        3.7439159089       -3.0345863534
 H        -7.5501787827        0.3042700944       -5.4019811481
 H        -6.9385498463        0.5653541461       -7.0107451789
 H        -9.6965121503        0.8008313709       -5.9871815227
 H        -9.0287261554        0.4494739798       -7.5852378992
 H       -12.6616743213        3.0687794282       -3.4907392980
 H       -13.4703208753        3.4602342869       -4.9612690760
 H       -12.7270492386        5.5811314815       -5.2522564828
 H       -11.1668093534        5.2203615400       -4.6178620150
 H       -12.2189293113        2.5879967687       -0.1418262311
 H       -13.2546997543        3.8188173665       -0.5857853970
 H       -12.7565505274        5.2359287144        1.4500415726
 H       -11.0329273637        4.8410787850        1.0480895123
 H       -10.7441198750        4.0580510382        5.8229950165
 H       -12.5591192580        3.4539224533        6.2532373508
 H       -12.4466198703        6.2953743356        6.5249438279
 H       -11.4523026592        5.4755510280        7.7652393427
 H       -13.8226522257        5.2215168714       12.1607555186
 H       -12.0784164351        4.7763755921       11.9721258472
 H       -13.1690729141        3.5747725833       12.5675474980
 H       -13.0426265724        6.9656529736       10.7669665167
 H       -12.9216927779        7.5153867810        9.1505111678
 H       -11.7069006049        6.2868391374        9.7624590690
 H       -15.2664554103        6.0584881020       10.5535493450
 H       -15.6603739727        4.5399121700        9.7127207633
 H       -15.6295031586        6.0328954757        8.8061131262
 H       -14.3631212683        5.3318362145        2.9969808620
 H       -15.2255300989        3.8978411693        3.6075489324
 H       -14.7810709287        4.0674936413        1.9096107653
 H       -12.2852402041        1.8538374096        4.1429323827
 H       -13.4012744055        1.6713814582        2.8927068609
 H       -14.0269810510        2.0547683834        4.6670145973
 H        -9.5760718482        5.1222422495       -3.4907599242
 H        -8.7978706546        5.9387499490       -2.1365814220
 H        -9.8665509215        6.8919678453       -3.2901947163
 H       -11.6002820333        7.8424950996       -1.3838051213
 H       -10.3682294860        7.2357330711       -0.5708802414
 H       -12.0078572195        6.3995549998       -0.2820759915
 H       -10.6896961395        4.8638077157       -7.4689462675
 H       -12.4485074073        4.6335063477       -7.1479355068
 H       -11.8130507865        3.8135044063       -8.4917590937
 H       -11.4115249934        1.4279764191       -8.2231661841
 H       -12.9203919055        1.8149968774       -7.1371877344
 H       -11.6393484764        0.9540025246       -6.6307388998
 H        -6.0527794274        4.9197642233       -5.7153071493
 H        -4.9843491770        4.3108331889       -7.0708399251
 H        -4.4804996371        4.6667953604       -5.4757913495
 H        -3.5768527420        1.6137400782       -6.0957172696
 H        -4.4819246244        2.0951158592       -7.5383455188
 H        -5.0186505401        0.8312849861       -6.4777260494
 H        -8.5330361426        1.5981926948        0.7193526625
 H        -7.5804062492        0.5437237650        1.9518026413
 H        -8.1395329355       -0.0121016454        0.3155955425
 H        -6.3887824031        3.3994407404        1.4133784940
 H        -4.7690069427        2.7258362543        1.3857270338
 H        -6.0863750800        1.9961698286        2.4760103556
 Na       -8.7240688117        2.5349401484       -2.8857932701
