117

 C        -4.7437110875       -0.1716914569        1.7203309702
 C        -5.6468697363       -0.0246926439        0.4450428212
 O        -5.5012225759       -0.7562034460       -0.5392619797
 C        -6.7635307869        1.1703350046        0.3064327643
 C        -6.6039606229        1.7644871401       -1.0854433819
 O        -7.3604555872        1.3555940194       -1.9161267785
 C        -5.4106854699        2.6255709091       -1.3274845376
 C        -5.3442134566        3.3535117264       -2.6771877108
 C        -5.0478777076        2.2579470119       -3.7296054422
 O        -4.5486873503        1.2294826375       -3.4001944112
 C        -5.3118815207        2.5939265062       -5.2627567542
 C        -6.8563768201        2.3397618503       -5.5435890061
 O        -7.7360660585        2.9976771663       -4.9701086933
 C        -7.4854109875        1.3358636992       -6.5142828594
 C        -8.9765167778        1.0456611288       -6.3943256957
 C        -9.7390822680        2.3273090862       -6.8243118396
 O        -9.1116025181        2.9856837115       -7.5953656198
 C       -11.2905307247        2.6659544426       -6.5748486850
 C       -11.4524526649        2.9066171692       -4.9699713370
 O       -10.6866114994        2.2954262771       -4.2309039641
 C       -12.6126025005        3.8191872717       -4.5079949853
 C       -12.3176041442        5.4373868070       -4.5639998316
 C       -12.1861281964        5.8633771700       -3.0110287627
 O       -13.0960173617        6.2521777554       -2.3046106634
 C       -10.6890479697        5.7144863930       -2.2096557615
 C       -10.8200621789        4.4962442473       -1.1842112885
 O       -10.3629576032        3.3878136491       -1.5204321069
 C       -11.8467402807        4.5936576294       -0.0968941404
 C       -11.3553413834        4.8163234916        1.3456071881
 C       -11.7166258802        3.5706619287        2.2018741062
 O       -11.3780654924        2.4343805119        1.9117794671
 C       -12.8086619926        3.6087827362        3.2673952559
 C       -12.3970181429        4.6650950933        4.5343763898
 O       -12.1649112377        5.7880762394        4.2010162867
 C       -12.1166332779        4.2140068116        5.9160041459
 C       -12.0669881213        5.2798788935        7.1524362939
 C       -13.6555821281        5.4017450004        7.8860749704
 O       -14.6320259967        5.3948885478        7.1965898841
 C       -13.6395664483        5.7482509056        9.5035571133
 C       -13.2488900498        4.5249335009       10.2389176779
 O       -13.2874495175        3.4476903738        9.6804085527
 C       -13.0008305440        4.5526631101       11.8733945046
 C       -12.6892629625        6.9940145549        9.6473661688
 C       -15.1004303140        6.1916337672        9.9906153058
 C       -14.1849992168        4.1412348444        2.8143799054
 C       -13.0307822580        2.0813043203        3.8301345882
 C        -9.6184965042        5.3981550988       -3.3327184719
 C       -10.2622001377        7.0631287432       -1.3927191027
 C       -11.6099153982        3.8427628491       -7.5390807084
 C       -12.2218935687        1.3566429972       -6.9610283722
 C        -4.9100537749        4.0646493710       -5.5510201564
 C        -4.4712681369        1.4711738382       -6.0777782449
 C        -8.1359928504        0.3848280729        0.5552640088
 C        -6.4612178534        2.2220192227        1.4803529802
 H        -4.5874173206        0.8468162506        2.0412505803
 H        -3.7815411997       -0.4203459254        1.3308317524
 H        -5.1755167991       -0.7302790013        2.4558863983
 H        -4.4850330446        1.9805703621       -1.1345466511
 H        -5.3615670899        3.4914505436       -0.6206393463
 H        -4.4258633343        3.9877675052       -2.6150920705
 H        -6.1981484126        3.8772709823       -3.0255409476
 H        -6.9606300869        0.2479424949       -6.6003475228
 H        -7.3295584693        1.7444116930       -7.4614889500
 H        -9.2586713046        0.6882010112       -5.4427225524
 H        -9.3808412610        0.3977625008       -7.1514635141
 H       -13.0209403896        3.4142693460       -3.5612463283
 H       -13.5329976061        3.6765838937       -5.1603503691
 H       -13.0861435190        6.0902219080       -5.0503738272
 H       -11.4672864344        5.5839915675       -5.1795185635
 H       -12.5240344759        3.7409772109       -0.2104098774
 H       -12.5533104405        5.4242576394       -0.3225647892
 H       -11.9381148297        5.6462439091        1.8475546208
 H       -10.2470380047        4.9280825069        1.3750053307
 H       -11.0416894618        3.8572076585        5.9787207375
 H       -12.7637230970        3.3797075950        6.2393146132
 H       -11.8564947846        6.2237390146        6.7249761958
 H       -11.1499203610        5.0910261167        7.8013877361
 H       -13.8962305548        4.5770706999       12.5041802581
 H       -12.4001261336        5.3518771461       12.2453954571
 H       -12.4102872814        3.6956826485       12.0123192244
 H       -12.6124618974        7.4912704563       10.6179797149
 H       -12.9134230166        7.6965544827        8.8850371540
 H       -11.5983245954        6.7951460930        9.3416666963
 H       -15.1794231755        6.1905829060       11.0201164591
 H       -15.8169573719        5.4524632606        9.5783595691
 H       -15.1456612896        7.1338366892        9.4776573278
 H       -14.2676445859        4.9271264499        2.1625841274
 H       -14.8332289914        4.3487667965        3.6536081422
 H       -14.8233101606        3.2406991776        2.4338821605
 H       -12.5255078174        2.1447505138        4.8031649534
 H       -12.6749353958        1.5148897911        3.0517669421
 H       -14.1066555730        1.7730932903        3.9761481153
 H        -9.9783667101        4.7300296817       -4.0044386680
 H        -8.7053437979        5.0320541234       -2.9073828205
 H        -9.4542398807        6.4107326763       -3.7768431072
 H        -9.6914575475        7.6585714858       -2.1220732963
 H        -9.5474774483        6.6092032011       -0.6759363513
 H       -11.0199836720        7.5516787279       -0.7906369474
 H       -11.0679968998        4.7210633551       -7.2373221087
 H       -12.6986315183        3.8535534157       -7.6354219006
 H       -11.2958788725        3.5420103130       -8.5663047835
 H       -12.3722040848        1.2265231356       -8.0340130656
 H       -13.2016957250        1.4400769228       -6.4293546077
 H       -11.7206657171        0.4428679434       -6.6242636021
 H        -5.0930912413        4.7252764744       -4.6785413061
 H        -5.2642139098        4.3460442352       -6.5561778224
 H        -3.8536531218        4.1409199128       -5.7114368125
 H        -3.5120058970        1.8074454568       -6.3420363313
 H        -5.0850516812        1.2712085837       -6.8811702185
 H        -4.4869027124        0.5520492188       -5.5567505061
 H        -9.0547138072        1.0073936612        0.5425909296
 H        -8.1597511733       -0.0563291672        1.4810342527
 H        -8.2163445174       -0.3658553671       -0.3444289181
 H        -6.8236341123        3.1781571668        1.3626660836
 H        -5.3905640419        2.2831397043        1.6809711155
 H        -6.8743212928        1.7484500057        2.4312755903
 Na       -8.7766910654        2.4255060424       -3.0303345288
