117

 C        -4.6734343276       -0.2292659559        1.5227432989
 C        -5.6682267733       -0.0211581110        0.3401372827
 O        -5.5007568640       -0.6997425832       -0.6369508810
 C        -6.8482541053        0.9624798294        0.3508828702
 C        -6.7422603451        1.6547985027       -1.0167369948
 O        -7.3911386280        1.4722142694       -2.0403466962
 C        -5.4471271505        2.6974804552       -1.1503512698
 C        -5.1868853726        3.3060053294       -2.5571644740
 C        -5.0162604363        2.1717773454       -3.6953844180
 O        -4.5692992503        1.1017693225       -3.3699776555
 C        -5.3641551043        2.3894816286       -5.2823959178
 C        -6.8613461651        2.3162384852       -5.4459863250
 O        -7.6156599331        3.0108653695       -4.7726298709
 C        -7.4209413904        1.2760111432       -6.5189587243
 C        -8.9132384366        1.0440032258       -6.3299304232
 C        -9.7086707348        2.2417420940       -6.9321680718
 O        -9.2284057211        3.0887190263       -7.6882492955
 C       -11.2770505093        2.6476627873       -6.5174042233
 C       -11.5377958435        2.9227928762       -5.0230279367
 O       -10.9667738104        2.3970499426       -4.1159569629
 C       -12.7216852838        3.8143339175       -4.6154748305
 C       -12.2974118747        5.2985072126       -4.3133906699
 C       -12.0140075000        5.7911707531       -2.8309998476
 O       -13.0381952996        6.0520941585       -2.2810484631
 C       -10.5095536670        5.8296838635       -2.2876990365
 C       -10.8598845324        4.4533220301       -1.2774979887
 O       -10.4386626467        3.3781080866       -1.4417229889
 C       -11.8298996716        4.8040153252       -0.0986307866
 C       -11.1796655898        4.7220342030        1.3955541713
 C       -11.7406830164        3.4772705836        2.0825749081
 O       -11.3302406132        2.4405203806        1.6551858255
 C       -12.7997431855        3.5734376154        3.4440820302
 C       -12.2618829833        4.6088512583        4.5839668413
 O       -12.1573007532        5.7708618265        4.2016372067
 C       -12.2580087236        4.1568502524        6.0982956516
 C       -12.3842671291        5.2097512762        7.1655383209
 C       -13.6891756006        5.6003272494        7.7146679531
 O       -14.7252279962        5.6899157149        7.0787803074
 C       -13.6721464699        5.8789022558        9.3189236573
 C       -13.3347357812        4.4997948679       10.2078327287
 O       -13.3283636219        3.4929979731        9.6092310739
 C       -12.8933784601        4.7223752991       11.6612805934
 C       -12.5437525936        6.9288082303        9.6302481400
 C       -15.0322691808        6.4620261632        9.8847367985
 C       -14.0714014708        4.2694580637        2.9057143997
 C       -12.9824065808        2.1314770478        3.8829123516
 C        -9.4200202951        5.3883628049       -3.3145773084
 C       -10.0219677190        7.0811128837       -1.6334445938
 C       -11.7805670043        3.7260784681       -7.5160580622
 C       -12.1053960984        1.3481818488       -6.8251276941
 C        -4.9133965213        3.8451584736       -5.5267717371
 C        -4.3408032564        1.5255990324       -6.0727117823
 C        -8.1756453342        0.3094954478        0.5129053716
 C        -6.6705539351        2.1151386057        1.4739542423
 H        -4.0352922969        0.6402857504        1.5466406210
 H        -4.0579415551       -0.9535686967        1.1303293426
 H        -5.2506830044       -0.3492551168        2.4721215204
 H        -4.6492397335        2.0432443566       -0.8806004001
 H        -5.3562484083        3.6093873792       -0.5923069158
 H        -4.1777027576        3.8226395363       -2.5429392760
 H        -5.9773041773        3.9432350133       -2.8870482546
 H        -6.8582101855        0.3168011583       -6.4783614103
 H        -7.2486170032        1.6295980895       -7.5730708458
 H        -9.2241084628        1.0906852713       -5.2234481782
 H        -9.4535708485        0.2250710987       -6.7212953381
 H       -13.0950882400        3.3587795661       -3.6532321269
 H       -13.6116987680        3.8264014178       -5.2224008271
 H       -13.0802745657        5.9814401879       -4.5013738354
 H       -11.5292633786        5.5969070201       -5.0718903380
 H       -12.6113383993        4.0624508959       -0.2057503080
 H       -12.3753393945        5.7232930200       -0.1734348345
 H       -11.4042362695        5.6076877880        1.9964617299
 H       -10.0769030797        4.4286456910        1.3339150482
 H       -11.1961269992        3.7975886172        6.4248691480
 H       -13.0272243090        3.2571787240        6.2476645886
 H       -12.0329355366        6.1824622197        6.6687828802
 H       -11.6793253792        5.1326721659        7.8783262172
 H       -13.8280299873        4.5654646009       12.2204311012
 H       -12.5939417755        5.6646119065       11.9931252578
 H       -12.0920159408        3.9971991677       11.9085046354
 H       -12.5595223774        7.3048987231       10.6401810261
 H       -12.4452254815        7.7680803903        8.8948215536
 H       -11.4581269755        6.5485630531        9.5058570248
 H       -14.9360594009        6.4341426503       10.9298861178
 H       -15.7157831192        5.7072394826        9.6197853472
 H       -15.2010230761        7.4396993859        9.4778895249
 H       -13.8016817503        5.2010570069        2.3329706391
 H       -14.8321930234        4.6232672252        3.6020907387
 H       -14.6488487222        3.5852010464        2.3174517825
 H       -12.7241766561        2.0329672782        4.9641646963
 H       -12.3368951676        1.7493314518        3.1460124800
 H       -13.8685689063        1.6817057421        3.6288648848
 H        -9.7032265206        4.4840338672       -3.8421763974
 H        -8.4900888529        5.3277599817       -2.7172418483
 H        -9.3271407978        6.2498732454       -3.9799074117
 H       -10.0696557041        7.7263825471       -2.5340696070
 H        -8.9992522293        7.0753184711       -1.1378822375
 H       -10.7483086906        7.4190560805       -0.8694253032
 H       -11.1559108758        4.6156165755       -7.3069699294
 H       -12.8566574270        3.8164433526       -7.3032721648
 H       -11.6664923996        3.4818453571       -8.5351021218
 H       -12.2493264560        1.1949413996       -7.8540325144
 H       -13.0484340489        1.3870101748       -6.3917407379
 H       -11.5082257248        0.3856718205       -6.4355430987
 H        -5.4935152899        4.5874082425       -4.9806383998
 H        -4.8541226417        3.9444591089       -6.6141414605
 H        -3.8968309875        3.9211472632       -5.2249152936
 H        -3.5340692186        2.1258070907       -5.9934834050
 H        -4.6789056353        1.3033089387       -7.1378486221
 H        -4.2211372530        0.5549365162       -5.6319428626
 H        -8.9699501912        1.1447173443        0.5621320781
 H        -8.3948561555       -0.2141899811        1.4264748608
 H        -8.3175904730       -0.2323359755       -0.3971228395
 H        -7.4138421819        2.9460620724        1.2820102484
 H        -5.6383015208        2.4712465908        1.5026224253
 H        -6.8871990783        1.7155212164        2.4916872875
 Na       -8.9551127701        2.4953362636       -2.8589958878
