117

 C        -4.6231695078       -0.2379706189        1.4326356307
 C        -5.6075833693       -0.1511592015        0.1950738105
 O        -5.5381839516       -0.7337841628       -0.8199942645
 C        -6.8854753192        1.0286230385        0.2909532158
 C        -6.6088728814        1.7089381382       -0.9779624479
 O        -7.3133216273        1.4224433761       -1.9255542809
 C        -5.4481428695        2.7370114491       -1.1361157237
 C        -5.2056265881        3.1236002114       -2.5403557623
 C        -5.0080205402        1.9793720780       -3.5832286217
 O        -4.5651814818        0.8927776198       -3.2854228398
 C        -5.1636594036        2.3731964915       -5.1302410120
 C        -6.7812975989        2.1949939648       -5.3277096120
 O        -7.4792538931        2.9238057948       -4.6555161300
 C        -7.4304815995        1.3108028524       -6.3551431411
 C        -8.9615525292        1.2530753435       -6.2492255798
 C        -9.7613497401        2.4158176939       -6.9395743522
 O        -9.2298134024        3.0946452472       -7.7768103891
 C       -11.3015094323        2.5465325969       -6.5055315275
 C       -11.6479803507        2.9288322518       -4.9986009120
 O       -11.0346946620        2.3655775459       -4.0757763321
 C       -12.7869466068        3.9185911666       -4.6450559014
 C       -12.2760198609        5.2816062078       -4.4191106439
 C       -12.0022186286        5.6186167678       -2.9665203240
 O       -12.7603308318        5.9863558924       -2.0993424150
 C       -10.4670708403        5.6378794247       -2.3095892344
 C       -10.7437597590        4.7010723874       -1.1216461135
 O       -10.4852604432        3.4981816609       -1.2957818890
 C       -11.7197172761        5.0427737872       -0.0143135844
 C       -11.0938177737        4.7836059379        1.3758421668
 C       -11.6371658355        3.4754386778        2.1372697391
 O       -11.4488465336        2.3780391841        1.6148917471
 C       -12.5465157715        3.4915456542        3.3549615899
 C       -12.3185589738        4.5371551517        4.5432139447
 O       -11.9887846040        5.6972993151        4.3738356001
 C       -12.4229439392        4.0667828550        6.0207584184
 C       -12.3902949465        5.2884143978        7.0240673279
 C       -13.7848188411        5.7434336356        7.6704521514
 O       -14.8313304290        5.9494062606        7.1047786535
 C       -13.6839042767        5.9864822975        9.2388267444
 C       -13.3208129221        4.6736534019       10.0296085981
 O       -13.3729648426        3.4899404406        9.5531326214
 C       -12.8931287320        4.8232983939       11.3607722277
 C       -12.4635470176        6.8936729257        9.5474913648
 C       -14.9744087247        6.6890924022        9.7251199646
 C       -13.9273322402        4.3053961817        2.8935474184
 C       -12.9794863709        2.0850694055        3.9849043604
 C        -9.3566272968        5.2651158215       -3.2789778287
 C       -10.0915338000        7.0586686796       -1.7777306324
 C       -11.9209538122        3.6020138208       -7.4108040933
 C       -12.0215879864        1.1897181229       -6.6862785873
 C        -4.9341409474        3.9258568524       -5.5613801240
 C        -4.4041142476        1.4711306724       -6.0399747272
 C        -8.2893021377        0.2614122758        0.3991658650
 C        -6.8796853758        1.9651404062        1.5378781496
 H        -3.6830161231        0.2785957723        1.3001644106
 H        -4.3478242636       -1.3353574967        1.4983090566
 H        -5.2831867960        0.2354227906        2.2040824557
 H        -4.6690912954        2.2642674805       -0.6407446542
 H        -5.5919759996        3.7178148880       -0.7253110280
 H        -4.2620253036        3.6262049712       -2.6728438267
 H        -6.0796935095        3.7307205738       -2.8990882431
 H        -7.0950512416        0.3841991452       -6.1794956175
 H        -7.0862324366        1.4994294564       -7.4449510321
 H        -9.3655236119        1.0672446877       -5.2060816039
 H        -9.4886997929        0.4507203788       -6.8587686888
 H       -13.3740216171        3.6519017145       -3.7744646412
 H       -13.4873572955        3.9256660987       -5.4616761362
 H       -12.8767469384        6.0937848778       -4.7794803553
 H       -11.2707805996        5.4455765141       -4.9013472701
 H       -12.5847836881        4.4195977771       -0.2339459373
 H       -12.0766268456        6.0700335849        0.0192605054
 H       -11.2540123568        5.6676222688        1.9655124080
 H       -10.0424610786        4.5343011898        1.2468078160
 H       -11.6621189344        3.2947572167        6.3386273567
 H       -13.4433078535        3.6681881083        6.2029942199
 H       -11.7932431589        6.2001693258        6.7312219711
 H       -11.8103800001        5.0478034442        7.9296646147
 H       -13.7739246042        4.4955642125       11.8987357426
 H       -12.7813793740        5.8568058063       11.7794749217
 H       -11.9670106691        4.2453238520       11.5817140486
 H       -12.5441271538        7.3465569489       10.5676626183
 H       -12.2122555467        7.7084181326        8.8050152757
 H       -11.5398657387        6.4233678280        9.5616607660
 H       -14.9032409045        6.8264544653       10.8402140277
 H       -15.6332083512        5.9090613584        9.5134648187
 H       -15.0819024963        7.6134656905        9.1992020191
 H       -13.6443000554        5.4441677390        2.7433395669
 H       -14.6616049284        4.3919937344        3.7529010586
 H       -14.5259165713        3.9481844883        2.1181269030
 H       -13.0597582498        2.1624714883        5.0017198481
 H       -12.3880297281        1.3031703521        3.4846109472
 H       -13.9001187841        1.9012981824        3.4881146862
 H        -9.4722905662        4.3453272481       -3.9882982365
 H        -8.4100172859        5.4013839732       -2.7296229386
 H        -9.4316696929        6.1274660915       -3.8881206415
 H       -10.5659665585        7.7253472653       -2.5503689856
 H        -9.0365452655        7.2224067414       -1.5297595129
 H       -10.6595589538        7.2532746136       -0.8371561321
 H       -11.2112467972        4.4150903805       -7.2119677157
 H       -12.9211335847        3.8086902139       -7.0524796846
 H       -11.8581024851        3.4440468053       -8.4799246188
 H       -12.0418562835        0.8318974289       -7.7386168527
 H       -13.0800989354        1.4269768393       -6.5187433534
 H       -11.6897154861        0.4240363605       -6.1094703907
 H        -5.8985749586        4.4080610146       -5.4949615393
 H        -4.6343223063        3.8692553220       -6.5861075255
 H        -4.1466709242        4.5113960393       -5.0081687743
 H        -3.3149206291        1.7805286057       -5.7760725473
 H        -4.6782114352        1.6118900996       -7.0972999456
 H        -4.6920347237        0.4303009366       -5.8376636696
 H        -9.1463611186        0.8752188180        0.6336050577
 H        -8.2529965559       -0.3310759207        1.3966536827
 H        -8.3851407047       -0.3616227214       -0.4318419761
 H        -7.9043761754        2.5103825177        1.4379470586
 H        -6.0318610183        2.6812778593        1.5414402366
 H        -6.9222328482        1.4687908111        2.4681528349
 Na       -9.2274345879        2.6035741072       -2.8592800610
