117

 C        -4.6971512421       -0.2840283212        1.2620524449
 C        -5.7354460945       -0.1212516801        0.2346846377
 O        -5.5558950978       -0.7671145956       -0.8021014044
 C        -6.8495380608        0.9590876780        0.3513701279
 C        -6.6893075971        1.7795499824       -1.0199413785
 O        -7.3689088102        1.5169811267       -2.0044743603
 C        -5.5142228718        2.6778821665       -1.1409080233
 C        -5.2020921473        3.1173723544       -2.5788474186
 C        -4.8058188888        1.9206176749       -3.5238391115
 O        -4.6234903084        0.7805469883       -3.2686381252
 C        -5.2121218883        2.3461863450       -5.1479488026
 C        -6.8254944069        2.1808566152       -5.2050618885
 O        -7.4691238943        2.8939053671       -4.4116416254
 C        -7.4146201690        1.3001069671       -6.1993447269
 C        -8.9252914925        1.2842229924       -6.1459397589
 C        -9.7767348519        2.5091819879       -6.8253990593
 O        -9.3517139803        3.1193807060       -7.7376402899
 C       -11.4132719470        2.5795376050       -6.4476435482
 C       -11.7207774622        2.8794477102       -5.0189892869
 O       -11.1057239920        2.3017558645       -4.0933496919
 C       -12.7619859131        3.8959746653       -4.6373527789
 C       -12.1275784273        5.3768604865       -4.4756994443
 C       -11.8555445870        5.7420026668       -2.9816721228
 O       -12.8118990270        5.9464877833       -2.2638550013
 C       -10.4681837445        5.6840919213       -2.3197264334
 C       -10.7421243584        4.6777643187       -1.0084809192
 O       -10.3563982495        3.4791789106       -1.0282967072
 C       -11.5253140338        5.1803440990        0.2422196473
 C       -10.9813939285        4.7611040465        1.6196022422
 C       -11.6536290149        3.4500134535        2.1524459545
 O       -11.4874991997        2.3623660853        1.6132741457
 C       -12.6010181387        3.5970992386        3.4717490480
 C       -12.1713170998        4.5348823625        4.6670947079
 O       -11.7125673031        5.6042112969        4.3640591913
 C       -12.7217622972        4.0705388807        6.0113509441
 C       -12.5098124631        5.2880544724        6.9285726860
 C       -13.7414792516        5.8277898747        7.6769297436
 O       -14.7313297302        6.0905496369        7.0226735410
 C       -13.6235123483        6.0726531766        9.1460262984
 C       -13.3784951987        4.7204295669        9.9120417672
 O       -13.4903037005        3.6526117075        9.2653381844
 C       -12.9112941012        4.8482420435       11.5071752329
 C       -12.3728585106        7.0319938870        9.3333071459
 C       -14.9085458042        6.7936992260        9.5975450811
 C       -13.8559410939        4.2390991190        2.8165175394
 C       -12.9456911106        2.1483954114        3.8018360937
 C        -9.3096726680        5.1749522383       -3.3637565368
 C       -10.2558810281        7.1918488458       -1.8492741057
 C       -12.0263032199        3.5976720230       -7.5343769184
 C       -11.9691759314        1.0569139067       -6.6242170906
 C        -4.9362555428        3.8634733137       -5.4324230557
 C        -4.4514861624        1.3341134404       -6.0438925173
 C        -8.2113267856        0.1242735070        0.2062916275
 C        -6.8880607639        1.8010728577        1.6770005809
 H        -3.6737639974       -0.1619404719        0.7960796716
 H        -4.6496770579       -1.3820647539        1.5662200595
 H        -4.9327339816        0.4860762406        1.9539218723
 H        -4.7198549471        2.1296130941       -0.5732086057
 H        -5.7273309313        3.6163492192       -0.6106551636
 H        -4.4640477348        3.8634728006       -2.7483812682
 H        -6.1906841163        3.3564226956       -3.0280333333
 H        -7.0039684376        0.2427612484       -6.1055125938
 H        -7.0699292584        1.6039951509       -7.1476714264
 H        -9.3088152280        1.1757857535       -5.1630784411
 H        -9.4627774760        0.4418380592       -6.7085870879
 H       -13.2870795483        3.7451511066       -3.7247028202
 H       -13.4742308593        3.8777992782       -5.4990549752
 H       -12.9596353595        6.1216174883       -4.6784658507
 H       -11.3020565160        5.6473885561       -5.0971227437
 H       -12.5806793143        4.8645027527        0.1048306231
 H       -11.5501068437        6.3095089563        0.2613133148
 H       -11.3605378211        5.5530644805        2.2671827427
 H        -9.9494269204        4.6481826062        1.6712907849
 H       -12.2990714212        3.1572497888        6.3581643127
 H       -13.7363991497        3.9430596631        5.8977350446
 H       -12.1274232182        6.1379555145        6.3941183652
 H       -11.6126697439        5.2092091692        7.7229837985
 H       -13.4630677867        4.4260998452       12.3589796353
 H       -12.8421869129        5.9368466368       11.8237504801
 H       -11.8816997102        4.5462726162       11.4133473821
 H       -12.5191063186        7.5941166770       10.2626268656
 H       -12.1656854781        7.7011042193        8.5566419153
 H       -11.4211435132        6.5841395435        9.4591443203
 H       -14.7330258028        7.0414994153       10.6628202657
 H       -15.7471172230        6.0365951581        9.4353522006
 H       -14.8849507399        7.7298778090        9.0292930682
 H       -13.7810954603        5.2875378606        2.6531928570
 H       -14.8410521512        4.1496741312        3.3388594307
 H       -14.0196932427        3.6820290332        1.7881134455
 H       -13.1801425627        2.0788744003        4.8621499703
 H       -12.1624705998        1.4927306030        3.4254728079
 H       -13.7686902888        1.8379982825        3.0880484052
 H        -9.8079912505        4.5335522056       -4.0255256222
 H        -8.5019864255        4.7028946732       -2.7989370137
 H        -8.9425312747        6.0387688664       -3.9670752158
 H       -10.7946595231        7.8458643297       -2.5719544421
 H        -9.1825207114        7.2920029359       -1.7006158607
 H       -10.6908850334        7.4652369799       -0.8742954087
 H       -11.5887575677        4.5769048010       -7.4587168802
 H       -13.1157621611        3.5676341539       -7.4684828114
 H       -11.5784499083        3.2167075731       -8.5017760177
 H       -11.5924208716        0.5565788969       -7.5216048439
 H       -13.0800846965        1.0461430515       -6.7766797055
 H       -11.6878808964        0.4549199312       -5.7970588360
 H        -5.8934114110        4.4586779511       -5.5517349441
 H        -4.3831449865        3.9369696249       -6.3831328018
 H        -4.2664235204        4.2723784078       -4.6447463058
 H        -3.4056710232        1.3154852292       -5.5877035280
 H        -4.4679274889        1.5541985639       -7.0969045231
 H        -5.0207038300        0.3601957382       -5.9850648350
 H        -9.0271532200        0.7705858973        0.2425418821
 H        -8.4641061700       -0.4788714101        1.0524427454
 H        -8.0448969849       -0.4978605911       -0.7484898440
 H        -7.8415885095        2.2376799461        1.6265483911
 H        -6.0984530272        2.5726502284        1.6529236162
 H        -6.8719672306        1.2864937994        2.6467107482
 Na       -9.2749505611        2.5475042660       -2.8563359637
