117

 C        -4.5835304380       -0.3765493919        1.1302437691
 C        -5.6477048414       -0.5458047983        0.0619730937
 O        -5.6684913558       -1.3298769754       -0.8858776332
 C        -6.9161672413        0.5470724114        0.2100514859
 C        -6.6319655577        1.6241414567       -0.8600064202
 O        -7.5232234234        1.9200654991       -1.6956076444
 C        -5.3172521425        2.4264179259       -0.9313476778
 C        -5.0497786408        3.0568938776       -2.2448540790
 C        -4.9328189408        1.9575264195       -3.4014526096
 O        -4.5604037367        0.8573609320       -3.1181226256
 C        -5.2409632607        2.2647491212       -4.8595504811
 C        -6.9494489879        2.3332109073       -5.0177786739
 O        -7.7110692342        2.9939233815       -4.3372645959
 C        -7.5467144687        1.4595964854       -6.0503324746
 C        -9.0626818368        1.1920001517       -5.9100555540
 C        -9.9801298631        2.3190703462       -6.6524463995
 O        -9.4042682723        3.2766008959       -7.0478226145
 C       -11.4696310598        2.2489591293       -6.5081420828
 C       -11.8174658564        2.8755272486       -5.1294244774
 O       -11.3640711797        2.2087077654       -4.1524987143
 C       -12.7302253189        4.1065732069       -4.9963206840
 C       -11.9286581673        5.3000756245       -4.4267918024
 C       -11.9075883773        5.6139690960       -2.9162011768
 O       -12.9255368181        5.9773825333       -2.3715468172
 C       -10.5372862021        5.7982735552       -2.1856704487
 C       -10.4583196247        5.0670329090       -0.8290573069
 O        -9.8023663724        4.0064505884       -0.7839129060
 C       -10.9693292411        5.6697375770        0.4967447755
 C       -10.5487850973        4.7871461214        1.6545242071
 C       -11.4521848444        3.5345360127        2.0079969819
 O       -11.1952094173        2.4722222643        1.4374255201
 C       -12.6197158440        3.5801827537        3.0732735997
 C       -12.0532193813        4.2756896917        4.3608163652
 O       -10.9052255387        4.4541349531        4.6640839999
 C       -13.1368992294        4.6256706921        5.4919635805
 C       -12.6606728740        5.3508892670        6.7393166368
 C       -13.7456222757        6.0739031103        7.5304273043
 O       -14.6913577056        6.4746777693        6.8854873397
 C       -13.4028825265        6.4785975400        9.0372384501
 C       -13.3946396835        5.1426596865        9.6831267081
 O       -13.7847463776        4.1329728235        8.9813045934
 C       -13.1084095929        5.0514253716       11.0867795264
 C       -12.2237622414        7.5017605824        9.3011802860
 C       -14.6868456960        7.3135696975        9.5366955815
 C       -13.9795476400        4.1556067416        2.5106188496
 C       -13.0257497188        2.1900548407        3.5571489965
 C        -9.4018944845        5.2075362781       -3.0915581382
 C       -10.3798453100        7.3796055364       -1.7957524896
 C       -12.1639272232        3.0946751007       -7.7334006865
 C       -12.0286276523        0.7929782142       -6.6667418776
 C        -4.6707765997        3.6107516411       -5.3725407811
 C        -4.8635440773        1.0628207368       -5.8068662297
 C        -8.4017768681       -0.1467916283       -0.0075498649
 C        -7.0309409473        1.3059877045        1.5245886675
 H        -4.1536050410       -1.3706447966        1.2918362360
 H        -5.1906100302       -0.0797051869        2.0351655119
 H        -3.8855969418        0.3256080916        0.7649324886
 H        -4.4504579812        1.9051607866       -0.6378975654
 H        -5.4396974685        3.2555374372       -0.2383609049
 H        -4.2266964602        3.7256924785       -2.1801087766
 H        -6.0297554068        3.4389582588       -2.6417236537
 H        -7.2894321773        0.4574883336       -5.9995153813
 H        -7.2772956101        1.7452368827       -7.1232664663
 H        -9.4497381727        1.1552689203       -4.8783574846
 H        -9.3221108957        0.1299745295       -6.2419753079
 H       -13.4461897793        3.7779234015       -4.2588052138
 H       -13.1968368679        4.3541280901       -5.9551130709
 H       -12.3670529542        6.1739096160       -4.9263968593
 H       -10.9100938298        5.3074408105       -4.7884855604
 H       -12.0308617926        5.8615160128        0.4812402964
 H       -10.4042391440        6.5824978020        0.5695959961
 H       -10.3895109173        5.3969111132        2.5856353689
 H        -9.6037621213        4.2604140326        1.3642785249
 H       -13.6180189311        3.5975084223        5.7580710391
 H       -13.9437814961        5.2786106211        4.9474758580
 H       -11.8474827071        6.0387516560        6.5714775273
 H       -12.0219038926        4.6415922555        7.4560373801
 H       -13.2194076808        4.0184167326       11.2931055320
 H       -13.9038615935        5.4909831278       11.7638649254
 H       -12.0890729713        5.3045534895       11.3350712148
 H       -11.9367138394        7.5301958276       10.4243538954
 H       -12.4722382404        8.5853665478        9.0614553644
 H       -11.2841342958        7.3637214616        8.8389758645
 H       -14.5005669851        7.6357812791       10.5387585243
 H       -15.5241402565        6.7392310394        9.3055235110
 H       -14.5977399940        8.1779514055        9.0044394363
 H       -13.9184068964        5.1712818164        2.1081559960
 H       -14.5434130036        4.4283496743        3.3870437833
 H       -14.5828392656        3.6150028051        1.7153531379
 H       -14.0416677560        2.0222196189        3.4601418508
 H       -12.7906747641        2.0521489193        4.6163786236
 H       -12.3689522160        1.5391673936        2.9481825931
 H        -9.5590076452        4.1210160010       -3.0961530272
 H        -8.4676109671        5.5326637460       -2.5816286195
 H        -9.3714065169        5.5665293732       -4.1073768621
 H        -9.9642111555        7.8499968762       -2.6543278375
 H        -9.8523581537        7.4860917006       -0.8782339397
 H       -11.3450987376        7.8385091243       -1.9012668976
 H       -11.8955189932        4.1460516652       -7.7407718824
 H       -13.2125860980        3.0773113496       -7.5099989814
 H       -11.7886725826        2.6438346731       -8.6620755923
 H       -11.8548361729        0.4989075870       -7.7166790991
 H       -13.1314498515        0.7888562617       -6.6404782548
 H       -11.6622960892        0.0726453833       -6.0362349608
 H        -4.9356413857        4.3076823147       -4.6323264992
 H        -5.2694639320        3.9579105191       -6.1397095621
 H        -3.6031800871        3.5679765808       -5.6292799764
 H        -3.7302518318        1.1585947538       -5.9789976549
 H        -5.3356771907        1.1352273469       -6.7367136962
 H        -4.9629713635        0.0804261734       -5.3277796224
 H        -9.2284738793        0.5002809930        0.0815668097
 H        -8.5376221098       -0.7808117752        0.9120975911
 H        -8.3321401812       -0.9167527925       -0.8177488519
 H        -7.8347307210        2.0958332135        1.4826059407
 H        -6.0770782414        1.8592152193        1.7786997523
 H        -7.3751100478        0.6786928494        2.3120940379
 Na       -9.6415130065        2.2149899952       -2.6182419557
