117

 C        -4.4946089812       -0.6935431850        1.0274549023
 C        -5.7770639437       -0.7292623929        0.0439383718
 O        -5.8839740883       -1.6542471897       -0.6942619243
 C        -6.9465251540        0.4216067121        0.1810028140
 C        -6.7486399893        1.6220061369       -0.8729718894
 O        -7.6335712308        1.9704146506       -1.6047612171
 C        -5.3277318549        2.1806153150       -0.8652914998
 C        -5.1620827053        3.0142163515       -2.1880035301
 C        -5.0008314912        1.9723954898       -3.3005522181
 O        -4.5689437153        0.8557931994       -2.9862711983
 C        -5.3983670294        2.1572065854       -4.7342763007
 C        -6.9537475468        2.2375836832       -4.9659829848
 O        -7.5810184154        2.9932019956       -4.2427506197
 C        -7.6939827342        1.3267535892       -5.9313673688
 C        -9.2764366613        1.1669093652       -6.0390388995
 C       -10.0022482773        2.3614185322       -6.4094669938
 O        -9.4407580155        3.4218828511       -6.6803553411
 C       -11.6607777019        2.1752230847       -6.5122584090
 C       -12.0286596023        2.8253186964       -5.0565447757
 O       -11.5338215136        2.3049141860       -4.1096216933
 C       -12.8796964865        4.1413195436       -4.8353515431
 C       -11.9271091878        5.2528197337       -4.4485972417
 C       -11.8649900588        5.5384297261       -2.9724528354
 O       -12.8071662414        5.5951733272       -2.2298776237
 C       -10.3352637867        6.0493088229       -2.2886156359
 C       -10.2846441271        5.0542122079       -0.8925986021
 O        -9.8773653836        3.9580795432       -0.9117437525
 C       -10.8143509555        5.6321463233        0.4415430808
 C       -10.5565674190        4.8610394515        1.7878897334
 C       -11.2727831078        3.4780529739        1.9814916726
 O       -11.1246974414        2.5512104800        1.2121318263
 C       -12.4438907616        3.4923381537        3.0126756558
 C       -12.1321421752        4.1256267239        4.3660527074
 O       -11.0551365010        3.7920770765        4.8584236017
 C       -13.0563958436        5.2223636697        5.0898294888
 C       -12.6366195814        5.7015663183        6.5538530020
 C       -13.6874154014        6.5103019120        7.2408332218
 O       -14.7065456840        6.8784541788        6.6992714746
 C       -13.4519611794        6.7188855300        8.9201310313
 C       -13.5781562820        5.2848995848        9.6571424054
 O       -13.8915845940        4.3003624850        9.1136212840
 C       -13.1917842282        5.2023555356       11.0877299485
 C       -11.9870002147        7.3275036897        9.0829779586
 C       -14.6583193550        7.5559369374        9.3791873721
 C       -13.5007560543        4.3815564161        2.3325368003
 C       -12.9014082977        1.9796029052        3.2580844238
 C        -8.9691892308        5.8698569991       -3.1347551605
 C       -10.4912566821        7.5709774797       -1.9778874035
 C       -12.0381165397        2.8207135572       -7.8499226902
 C       -12.1150744255        0.5968921067       -6.4685618335
 C        -4.9968757102        3.5915442393       -5.2976183872
 C        -4.5858067740        1.0258656458       -5.6081750857
 C        -8.2091507996       -0.3567232495       -0.3102429310
 C        -6.9842622847        1.0719209520        1.7115336750
 H        -4.4887866184       -1.5756485218        1.6683941481
 H        -4.5536692528        0.2329653173        1.5838403469
 H        -3.6201852246       -0.7538411442        0.2812426241
 H        -4.5608288070        1.3691897788       -0.7607729575
 H        -5.1314493724        2.8503844269       -0.0088460480
 H        -4.1296668368        3.4475932193       -2.1591427354
 H        -5.9432361114        3.7197658086       -2.3946327368
 H        -7.5334454319        0.2579791761       -5.7910081905
 H        -7.2808625557        1.5219338233       -6.9115379581
 H        -9.7446039166        0.7738052459       -5.1220064163
 H        -9.5911426833        0.4491936016       -6.7597464637
 H       -13.7538217579        3.8177397194       -4.2516130958
 H       -13.1875110539        4.4822153331       -5.8056173865
 H       -12.3086213265        6.1317201924       -4.9924537205
 H       -10.9317180371        5.1162291774       -4.9132466475
 H       -11.9165449858        5.6944364090        0.3234217991
 H       -10.3453996012        6.6432021178        0.5703632510
 H       -10.9755327819        5.4510724138        2.5736885594
 H        -9.5015069019        4.7928291528        2.0390956066
 H       -13.9969674141        4.7774858933        5.0318040679
 H       -13.0194163316        5.9198534909        4.3275971654
 H       -11.6938945750        6.3381763623        6.5643690398
 H       -12.2780810074        4.8810689582        7.0188187198
 H       -12.7820650906        4.2443814593       11.5230626868
 H       -14.0876725470        5.4196005902       11.6451865679
 H       -12.3845309023        5.9264526456       11.3358025779
 H       -11.4516453288        7.3120374260        9.9666512101
 H       -11.8713546529        8.3505939677        8.8007846293
 H       -11.3023557834        6.7384070649        8.4177348317
 H       -14.5164725416        7.8208743715       10.4441892859
 H       -15.4149844581        6.8216157218        9.1120636175
 H       -14.7829932371        8.4750218933        8.7237834660
 H       -13.1663720614        5.4405764368        2.1196247612
 H       -14.5260418972        4.5494548944        2.7618756267
 H       -13.5998952835        4.0606197879        1.3616342131
 H       -13.7019222803        1.5759706214        2.5687281060
 H       -13.3820596322        2.0528570902        4.2694372730
 H       -12.0141784822        1.3486786867        3.1965154788
 H        -8.8488859636        5.0052892858       -3.8144534581
 H        -8.1228275728        6.0855733205       -2.4928492070
 H        -9.0835273929        6.7952343760       -3.6916726123
 H       -10.7339266478        8.1318150495       -2.8945075238
 H        -9.5012089733        7.8084888166       -1.5506405836
 H       -11.3798162573        7.7760500734       -1.3484774561
 H       -11.2918361358        3.5939180684       -8.1016635871
 H       -12.9416395501        3.4401355548       -7.7599251421
 H       -12.0016995979        2.0534504576       -8.5750536396
 H       -11.7462413058       -0.0307100931       -7.3240115488
 H       -13.2060342295        0.5057291323       -6.4610941440
 H       -11.8270333028        0.1667813504       -5.5101718036
 H        -4.6039845540        4.2386245812       -4.5185214619
 H        -5.8601361452        4.1942011231       -5.6388218878
 H        -4.2821195005        3.3639403029       -6.0575208157
 H        -3.5922277493        0.8408940067       -5.2308563366
 H        -4.5329063762        1.2651484953       -6.7346437320
 H        -5.0820498029        0.0575933699       -5.4469952159
 H        -9.0907329752        0.3628224450       -0.1928365413
 H        -8.4068536502       -1.2751225557        0.2596902162
 H        -8.0410748291       -0.7097863488       -1.2616972444
 H        -7.8494253988        1.7239458853        1.9018006369
 H        -6.1517013164        1.6908075833        1.9820015268
 H        -7.1009136385        0.2081747647        2.4085995803
 Na       -9.7898472125        2.2836001405       -2.2452918257
