117

 C        -4.5512695596       -0.7245255033        0.9073650327
 C        -5.7926938395       -0.7987804104        0.0831911348
 O        -6.0674619137       -1.7359014895       -0.6588664903
 C        -6.9362058847        0.2966405013        0.1858931197
 C        -6.6937151234        1.5507728706       -0.6894033628
 O        -7.6519693639        1.8294726034       -1.4645232190
 C        -5.4079080746        2.2513238091       -0.8339431110
 C        -5.1626935245        3.0365379236       -2.1710238850
 C        -4.9626869605        1.8841625522       -3.2895170150
 O        -4.5861571118        0.7929743414       -2.9549054082
 C        -5.4620258588        2.1565987335       -4.8586686423
 C        -7.0458114891        2.0653268052       -4.8420473531
 O        -7.6843532888        2.8336836826       -4.1272156805
 C        -7.6617085919        1.1263452917       -5.9174497263
 C        -9.2220204560        0.9746428907       -5.9102076875
 C       -10.0324507116        2.3585664825       -6.3231494580
 O        -9.6125136206        3.4450256976       -6.5130662416
 C       -11.5534451313        2.2788620096       -6.3358119824
 C       -11.9821790679        2.8039768665       -4.9844288522
 O       -11.5318766477        2.2669707367       -3.9872156945
 C       -12.7535234911        4.1620272343       -4.8764998393
 C       -11.7993453498        5.3229032308       -4.4899030409
 C       -11.6693352800        5.5199089513       -2.9074718750
 O       -12.6455586666        5.3172139972       -2.2067953964
 C       -10.3700950051        6.0835919599       -2.2325516384
 C       -10.2663088485        5.1809305909       -0.9068244623
 O        -9.8884341436        4.0404000520       -1.1355461072
 C       -10.7820693189        5.7248771377        0.3468170107
 C       -10.4924355581        4.9733051290        1.6434955912
 C       -11.2415328104        3.5854540274        1.8803634855
 O       -10.9428060408        2.6617888465        1.0975288745
 C       -12.4829070781        3.5059545833        2.9463600550
 C       -12.0400146882        4.1089851990        4.3959670548
 O       -11.1879376060        3.6219851480        5.1419820415
 C       -12.8507150131        5.4496015976        4.9473124770
 C       -12.5469152117        5.7617771645        6.4199389111
 C       -13.6789048256        6.4328799400        7.1406208513
 O       -14.5770738926        7.0774029479        6.6314799531
 C       -13.5016277014        6.6279979078        8.6675561478
 C       -13.5321059399        5.3976478302        9.5332098918
 O       -13.9818813880        4.3301233772        9.0417508696
 C       -13.2436380978        5.3677947330       11.1355243628
 C       -12.1155777576        7.2955974852        8.8877295391
 C       -14.4573955390        7.7101134554        9.3636263934
 C       -13.5346375288        4.3380004619        2.2112788150
 C       -13.0075841476        2.0817106898        3.1322782977
 C        -9.0503726122        5.9448559673       -2.9926254826
 C       -10.6445994835        7.5389084929       -1.9288186979
 C       -12.1662964385        2.7921643004       -7.7180793414
 C       -12.0058064547        0.8041192984       -6.2823282461
 C        -4.9840922165        3.6806925717       -5.2212758412
 C        -4.6782999608        1.0977193534       -5.6672858471
 C        -8.2140723785       -0.4089773537       -0.3125827780
 C        -7.0169067676        0.8173770715        1.5775962346
 H        -4.8845806108       -1.2671931356        1.7316202969
 H        -4.4575003854        0.3540361386        1.1828158576
 H        -3.7181071547       -1.2324689094        0.4908616933
 H        -4.6362903685        1.5011903434       -0.5608340544
 H        -5.2581549189        3.1030472963       -0.0512802933
 H        -4.2080074312        3.5745984614       -2.1048030167
 H        -6.0267812897        3.7293096870       -2.3582377810
 H        -7.3772766179        0.1628943043       -5.9908951565
 H        -7.2948200029        1.6256497922       -6.9322289920
 H        -9.5247877367        0.6991266106       -4.9116953755
 H        -9.5774332042        0.2180993680       -6.5102388350
 H       -13.4462935473        3.9189337009       -4.0094772909
 H       -13.3902001809        4.3926387916       -5.7471136138
 H       -12.2003336921        6.1966440292       -4.9137485912
 H       -10.7881884464        5.2554376570       -4.9933449834
 H       -11.8779871509        5.7185153298        0.0859357727
 H       -10.3666184778        6.7384230944        0.4798186918
 H       -10.5388668604        5.5521360738        2.5632309673
 H        -9.3962060770        4.7168811488        1.5295477915
 H       -13.8860279806        5.1558998583        4.7366784598
 H       -12.6395059779        6.1495944018        4.1817982498
 H       -11.6996730837        6.3631929969        6.5286388915
 H       -12.2525776405        4.7788269126        6.7644178489
 H       -12.8173148234        4.5706364484       11.6575582955
 H       -14.2997877969        5.5123797375       11.4605838646
 H       -12.6339105630        6.1979084183       11.5511304884
 H       -11.9638290290        7.7193870084        9.8703970597
 H       -11.9874751458        8.2111232025        8.2965924421
 H       -11.2872538579        6.7288697444        8.8075449829
 H       -14.0777214334        7.7721933420       10.4601646108
 H       -15.4045812633        7.2435576092        9.1710363913
 H       -14.4009223224        8.6739395050        8.8162776652
 H       -13.4063811648        5.4562208167        2.3004404811
 H       -14.5716945698        4.1773822283        2.5185894598
 H       -13.5573937125        4.2808936413        1.1498888775
 H       -13.1004654618        1.6662858272        2.1467842087
 H       -14.0339636174        2.0250536584        3.6550379928
 H       -12.1235987672        1.4722512409        3.5173137166
 H        -8.8474308955        5.0317012875       -3.6129152281
 H        -8.2848502842        6.1225240038       -2.2688282547
 H        -9.0759923160        6.7984534414       -3.5538192141
 H       -11.2633049412        7.9995242286       -2.7176084363
 H        -9.6564675211        8.0142867467       -1.8479680049
 H       -11.3057226172        7.5819092075       -1.0204745699
 H       -11.7024361089        3.7263698253       -8.1112841946
 H       -13.1946489367        3.1137490363       -7.5350541471
 H       -12.0659019255        1.9578803745       -8.3944221235
 H       -11.4440172937        0.2588581070       -7.1269199334
 H       -13.0721097961        0.8226355709       -6.6507101909
 H       -12.0410560880        0.3000766400       -5.4122428589
 H        -4.4775278039        4.0772455352       -4.3231060465
 H        -5.8578276080        4.3443760733       -5.2822055866
 H        -4.2691645206        3.6863030695       -6.1228667709
 H        -3.6526921581        0.8730435375       -5.2427684618
 H        -4.5589256405        1.3838979983       -6.6333987910
 H        -5.1537241808        0.1787312090       -5.5835033878
 H        -8.9977806838        0.3343220538       -0.1780157896
 H        -8.4543944208       -1.3867509567        0.2085872665
 H        -8.1112154275       -0.7162256129       -1.3234055407
 H        -7.9769475157        1.3735967235        1.7708371462
 H        -6.3010368299        1.5649903042        1.8397171102
 H        -6.9628195767        0.0291718919        2.2298233504
 Na       -9.7895357565        2.2800776079       -2.2734512452
