117

 C        -4.5621066897       -0.7727257697        0.8304696976
 C        -5.8566401654       -0.9493519691        0.0217545058
 O        -6.0589865413       -1.9232489116       -0.6554155163
 C        -7.0361233391        0.1801292026        0.1854235801
 C        -6.6856129664        1.3959218970       -0.8198004010
 O        -7.6439532399        1.8877781416       -1.4154902024
 C        -5.4470280157        2.3831054982       -0.7613908899
 C        -5.2458809584        2.9124269076       -2.1631298458
 C        -5.1209367535        1.7809468498       -3.2182305733
 O        -4.5913188188        0.7426255485       -3.0309429682
 C        -5.4375000155        2.1849456123       -4.7280603561
 C        -7.0513433341        2.0334037696       -4.8382036547
 O        -7.8416854099        2.4795996363       -3.9994577658
 C        -7.6044182680        1.1511780224       -5.8795596689
 C        -9.1086159108        1.1335476451       -5.7414284899
 C        -9.9820620835        2.3245511987       -6.2358644569
 O        -9.4403230007        3.3977961859       -6.3463095423
 C       -11.6109871888        2.0995119976       -6.2734355888
 C       -11.8600059422        2.8915148212       -4.8621383226
 O       -11.5482011304        2.2839948597       -3.7936803061
 C       -12.5920017886        4.2677759861       -4.8340558785
 C       -11.6433387356        5.3886231184       -4.4173671868
 C       -11.5655687847        5.4808038232       -2.9045655936
 O       -12.4884717405        4.9738642378       -2.2784979596
 C       -10.4139588640        6.2569917743       -2.2495972885
 C       -10.3538306588        5.2649157272       -0.9762855104
 O        -9.8255882375        4.1375889088       -1.0802403765
 C       -10.8089064647        5.8184614058        0.3845086809
 C       -10.3546551778        4.9890711523        1.6012595956
 C       -11.1838905717        3.7169795122        1.7547367988
 O       -10.8899718054        2.7343053028        1.1760660216
 C       -12.3858497012        3.6722647073        2.8135375657
 C       -11.9998697461        4.1597965659        4.3730751199
 O       -11.4839264565        3.4693505257        5.1766643406
 C       -12.6402877764        5.5069384553        4.7919387287
 C       -12.4650789986        5.6967603820        6.2567189881
 C       -13.6256910910        6.6206262923        7.1075815735
 O       -14.4718664609        7.1697037020        6.4433891330
 C       -13.4276479342        6.6988417733        8.6639909129
 C       -13.7000605674        5.3836562214        9.4561617792
 O       -14.0003883030        4.3032888323        8.9707380790
 C       -13.3845036767        5.5810722361       10.9798434629
 C       -11.9517172767        7.3398850119        8.7498144859
 C       -14.4079990072        7.8312446191        9.2651849309
 C       -13.5863117366        4.3986400053        2.1581142957
 C       -12.9474188951        2.1985798549        2.9582565238
 C        -9.1117617958        5.9807716294       -3.0098154146
 C       -10.8656453215        7.6963080047       -1.8792816833
 C       -12.2681276626        2.9110836468       -7.3831766363
 C       -12.1145926111        0.6323042912       -6.1405113932
 C        -5.0305105581        3.6161940524       -5.1188188206
 C        -4.8376412497        1.2855203954       -5.7074856840
 C        -8.3721618992       -0.4270055779       -0.1700000366
 C        -7.1205565072        0.5725498440        1.6459455697
 H        -4.9020818172       -0.8741511134        1.8772343401
 H        -4.1210856993        0.1694136088        0.5710931590
 H        -4.0003351154       -1.6116074728        0.6634716945
 H        -4.5759918233        1.8971078610       -0.2985413398
 H        -5.6367043886        3.2836239300       -0.1366822771
 H        -4.4172821941        3.5721736721       -2.3749194012
 H        -6.2587701345        3.4151170719       -2.3662931549
 H        -7.4061949649        0.0524464692       -5.6915971731
 H        -7.3055224397        1.3133785861       -6.9214101979
 H        -9.3615409063        0.8384134697       -4.7448087328
 H        -9.5440468766        0.3346541922       -6.4214409476
 H       -13.3076150329        4.1253858284       -3.9922609378
 H       -13.2560330430        4.3841949336       -5.7467358840
 H       -11.9291617656        6.3677903016       -4.8067964024
 H       -10.6509894472        5.2741383974       -4.8049122613
 H       -11.9037957110        5.8669547067        0.3700582962
 H       -10.3410188853        6.7740947359        0.5347725114
 H       -10.3845278533        5.5499529242        2.6043571125
 H        -9.2715746913        4.7398014194        1.4577681183
 H       -13.6389025361        5.5062841082        4.2404857069
 H       -12.0305361615        6.2685743394        4.1558235470
 H       -11.5067206390        6.1348430090        6.2577916441
 H       -12.3227931853        4.5741859230        6.6830976393
 H       -12.6854217157        4.8274287294       11.2467646001
 H       -14.1870563438        5.5927949577       11.7356140417
 H       -12.7645886525        6.4231326674       11.1350919269
 H       -11.7439513276        8.1112960151        9.5144726162
 H       -11.7473883401        7.9264397648        7.8881523560
 H       -11.1084693232        6.6920416690        8.9541210568
 H       -14.1781300135        7.9893274848       10.3154345959
 H       -15.4129086369        7.4865737218        8.9303752458
 H       -14.2249991146        8.6730063988        8.6273207110
 H       -13.6502781295        5.4359415840        2.1515074737
 H       -14.4533264082        4.0979214660        2.7264713346
 H       -13.9297839913        4.2279142654        1.0306097367
 H       -12.4135767144        1.6290730929        2.1263548472
 H       -14.0029649319        2.1093959485        2.8825510058
 H       -12.4729012811        1.6626638785        3.7833367563
 H        -9.0624522176        4.9327895255       -3.0544075316
 H        -8.3082531346        6.2297423361       -2.3318723330
 H        -9.0092336080        6.4507573054       -4.0061283633
 H       -11.2688314811        8.0740923874       -2.8675375039
 H        -9.9686887996        8.2907714408       -1.6727033257
 H       -11.6598569601        7.6767452390       -1.1327795392
 H       -11.9889068104        3.9281151225       -7.2104749131
 H       -13.3676287378        2.9353544563       -7.3293191455
 H       -11.9475673899        2.5308876345       -8.4159833584
 H       -11.6277095289        0.0911204327       -6.8795777136
 H       -13.1846610432        0.5392555544       -6.2832912161
 H       -11.9529564208        0.0949322148       -5.1003786447
 H        -4.2135137569        4.0635379311       -4.4764458076
 H        -5.9338222222        4.2000067605       -4.8891227184
 H        -4.7277129580        3.6586491053       -6.1940784032
 H        -3.7932009645        1.2383285514       -5.7238540688
 H        -5.1330440437        1.6650813522       -6.6493098211
 H        -5.1647581430        0.2925424007       -5.5428324072
 H        -9.1360746870        0.2773078235       -0.0141137535
 H        -8.4618953812       -1.3418264136        0.3750278877
 H        -8.3718115848       -0.8433550061       -1.2814960765
 H        -7.9824642607        1.1341576853        1.8073353074
 H        -6.3784706342        1.2982024416        1.9625548359
 H        -7.0655299208       -0.3071110937        2.2816525341
 Na       -9.7090057177        2.2037643093       -2.4626630672
