117

 C        -4.5513315826       -0.8041129067        0.7541224551
 C        -5.9076462843       -1.1412108578       -0.0160901032
 O        -6.0719998364       -2.1059424890       -0.6951484888
 C        -7.0715878179        0.0728274601        0.2009504302
 C        -6.9274753260        1.4415613447       -0.6412483086
 O        -7.6954208248        1.8454959006       -1.4127109147
 C        -5.6080188533        2.2931796641       -0.6621547334
 C        -5.3503993862        2.8150227584       -2.1246215793
 C        -5.0375423531        1.8039957042       -3.2541217557
 O        -4.6605919337        0.6607815287       -3.0252895914
 C        -5.5983338843        2.2081210350       -4.7611999066
 C        -7.1437137071        1.9522466684       -4.7484016469
 O        -7.7787154637        2.3696710592       -3.7879997442
 C        -7.7228629748        1.1290789672       -5.8981717342
 C        -9.2083628858        0.9124889344       -5.7979613800
 C        -9.9331303223        2.2430922443       -6.1096103055
 O        -9.3804063399        3.3470699209       -6.2888507241
 C       -11.5540947398        2.1141818763       -6.0554176413
 C       -11.9434997146        2.8763398297       -4.6940481268
 O       -11.5509066364        2.3852180142       -3.6406820980
 C       -12.5114810798        4.2574536809       -4.7893378122
 C       -11.5679759096        5.3569547454       -4.4814593007
 C       -11.6241438374        5.4486218616       -2.9405706214
 O       -12.3366123307        4.7456437504       -2.2855234340
 C       -10.4739791161        6.1746788040       -2.1551131593
 C       -10.2317286872        5.3883034059       -0.8859837179
 O        -9.8137623940        4.2672205949       -0.9274921963
 C       -10.7824914555        5.9659113096        0.5110731889
 C       -10.2787461779        5.0583392669        1.6948593689
 C       -11.0932636153        3.7037371378        1.8418581733
 O       -10.8175171042        2.7484940668        1.2031480375
 C       -12.4184889896        3.6855109138        2.7754879125
 C       -12.2393575230        4.1764002762        4.1810429239
 O       -11.7448103784        3.3331172978        4.8906619853
 C       -12.4949865196        5.6646093004        4.7941307886
 C       -12.4774749879        5.7005932013        6.3210516008
 C       -13.4980751541        6.6847441402        6.9117382200
 O       -14.3641733437        7.2126946253        6.2724876593
 C       -13.2922778925        6.9183055060        8.3946842594
 C       -13.5441156227        5.4725764665        9.3831901165
 O       -14.0028962698        4.5102300388        8.9018683319
 C       -13.4839735677        5.6544801627       10.8138391607
 C       -11.8665580833        7.2736587231        8.7454545757
 C       -14.4143256056        7.8905786482        8.9326922618
 C       -13.5396087436        4.6150336566        2.1419919827
 C       -12.7375867537        2.1696373568        2.8665157015
 C        -9.1409213349        6.2155278441       -3.0322231116
 C       -10.9665413881        7.7371685038       -1.9903207816
 C       -12.1842182458        2.9011344782       -7.1606820150
 C       -12.1005729820        0.6685961855       -6.0058905333
 C        -5.1857813516        3.7277959753       -4.9063686072
 C        -4.8431087021        1.2825037059       -5.8093833937
 C        -8.4909113765       -0.4970283195       -0.1762928723
 C        -7.1043395860        0.4549941859        1.7467801488
 H        -4.5939230587       -0.3782455189        1.7781701959
 H        -4.0205646186       -0.3025637504        0.0032891267
 H        -4.1709187704       -1.8782283100        0.7897691766
 H        -4.7222003837        1.6587275274       -0.4998115016
 H        -5.4914594494        3.0898879451       -0.0179067043
 H        -4.4446835200        3.4615643155       -2.1341985277
 H        -6.2101848296        3.3748631775       -2.4923989223
 H        -7.1522894868        0.0984760542       -5.9798530635
 H        -7.5756870329        1.5936417448       -6.7945438567
 H        -9.4885686616        0.7891882983       -4.7137964157
 H        -9.8152647388        0.1085945656       -6.3725113999
 H       -13.3988685054        4.4064738749       -4.1838666369
 H       -12.9403233199        4.2892957208       -5.7779582139
 H       -11.8565073685        6.2997626462       -5.0390725092
 H       -10.5625070898        5.1974591744       -4.7315061325
 H       -11.8429975823        5.9143849546        0.4746079829
 H       -10.4476618031        6.9398245916        0.8089977082
 H       -10.3054987740        5.6684267260        2.6685519663
 H        -9.2089914184        4.8875176291        1.5516500659
 H       -13.5356606356        5.8874450629        4.4237709314
 H       -11.8821748165        6.5242840111        4.2815289544
 H       -11.3517024408        5.8765308430        6.6536836203
 H       -12.8815777693        4.7249296847        6.7630342654
 H       -12.7444410641        4.8784507438       11.1524359116
 H       -14.3959789005        5.4886110323       11.3048349913
 H       -13.0737314322        6.5575988007       11.2093741323
 H       -11.6006477055        7.8507461076        9.6130560074
 H       -11.2594078547        7.7861063094        8.0276283269
 H       -11.3004650518        6.2878997439        9.0402512918
 H       -14.1636428919        7.8915400051        9.9172911825
 H       -15.3903937800        7.5428352101        8.6629529800
 H       -14.2939012935        8.8277210598        8.4218373826
 H       -13.2150076785        5.5895584809        1.8176861369
 H       -14.4035513615        4.8290626813        2.8246375548
 H       -14.0828145307        4.2618334268        1.2412232449
 H       -12.0074729986        1.5396236023        2.2786589614
 H       -13.7394304305        2.0457141186        2.5384252851
 H       -12.6100288599        1.6971487566        3.7858955363
 H        -8.7364755044        5.2008657709       -2.9619701667
 H        -8.3785774305        6.7867863201       -2.4909377761
 H        -9.3357645514        6.5161193278       -4.0999854914
 H       -10.7685759824        8.1841388876       -3.0195678475
 H       -10.2374116793        8.2537578016       -1.3738106435
 H       -11.9792212229        7.8077771667       -1.6165295802
 H       -12.0228021485        3.9733248943       -7.1918339708
 H       -13.2794987243        2.7054837071       -7.1918324160
 H       -11.8062487846        2.4604182109       -8.1094174198
 H       -11.8049776369        0.1174376608       -6.8750114595
 H       -13.1458318312        0.5948937928       -5.8193153938
 H       -11.6751993659        0.1628834158       -5.0858528612
 H        -4.0930828068        3.7882046734       -4.8407422688
 H        -5.6563870826        4.4663853601       -4.2292387466
 H        -5.4169437430        3.9363870303       -5.9183738887
 H        -3.8997468288        1.6937278266       -5.9734714146
 H        -5.2189219387        1.2777571551       -6.8943468087
 H        -4.6549244872        0.2817951549       -5.3913405244
 H        -9.2119308125        0.3573994157       -0.0603601004
 H        -8.6452865583       -1.3383751198        0.4557170497
 H        -8.5872109327       -0.8897641631       -1.1770862087
 H        -7.8184484927        1.2179680489        1.7919229874
 H        -6.2554001235        1.0324638552        2.1143912167
 H        -7.2814024481       -0.4018979597        2.4769154131
 Na       -9.5882790994        2.1729333493       -2.6208423787
