117

 C        -4.5598644541       -0.9237354145        0.5589384869
 C        -5.9404342187       -1.0398477617       -0.0359280009
 O        -6.2518116627       -2.0581692510       -0.6483147719
 C        -7.0903818464        0.0434913038        0.2387360019
 C        -6.9193709758        1.2372773278       -0.6419585160
 O        -7.9878562249        1.6418913406       -1.1680533021
 C        -5.5523445039        1.9485391528       -0.6660445688
 C        -5.3795747973        2.7449897160       -1.9665874528
 C        -5.2127165800        1.7312111914       -3.2167420817
 O        -4.7103071501        0.6551861408       -3.0389469316
 C        -5.5558365611        2.2024078951       -4.6769538795
 C        -7.0194186962        1.8436050427       -4.7313877431
 O        -7.6728822958        2.3840193318       -3.8668804567
 C        -7.7325996175        1.1357696058       -5.8277379637
 C        -9.2582722522        0.7938026852       -5.8367630364
 C       -10.0042659199        2.1140631139       -5.9067965140
 O        -9.4374979973        3.0961008404       -6.2604553585
 C       -11.5512388483        2.1973720077       -5.8973031408
 C       -11.9089345029        2.9084679585       -4.5650659807
 O       -11.6415158589        2.5091973329       -3.4893037589
 C       -12.7446122950        4.2299816530       -4.7280288198
 C       -11.6266434242        5.2268829648       -4.4211132011
 C       -11.4351137884        5.2563964232       -2.9140262143
 O       -12.2708738560        4.6832137327       -2.2343460319
 C       -10.4113733744        6.1940855481       -2.1288945124
 C       -10.2046611332        5.4594263110       -0.7098005061
 O        -9.7164575861        4.3706947236       -0.8470200917
 C       -10.6285083185        6.0275765982        0.5875120937
 C       -10.3019618815        5.1649351160        1.8207185921
 C       -11.2052623298        3.8382001283        1.7966764865
 O       -10.5713591905        2.8793044440        1.2462301647
 C       -12.4831161477        3.6865596364        2.5986624839
 C       -12.1873794299        4.1534897493        4.1284058708
 O       -11.8829661889        3.3452042551        5.0219233185
 C       -12.3870246402        5.6162111846        4.6486619509
 C       -12.4969091454        5.5392033594        6.2277581373
 C       -13.3474135006        6.5701751338        6.7488596167
 O       -14.1785938633        7.2348708729        6.1023920381
 C       -13.1971605046        6.9495494902        8.3969924850
 C       -13.6730920619        5.6963585455        9.2249858057
 O       -13.9535740600        4.6879282618        8.5697738390
 C       -13.4792556120        5.7831171994       10.7713338081
 C       -11.7885877887        7.2990776480        8.8359968295
 C       -14.3366663603        8.0544021380        8.6262344704
 C       -13.5090230400        4.6876263391        2.0187882381
 C       -12.8915005384        2.2172026067        2.6432211935
 C        -9.1183368571        6.5037692793       -2.9514119153
 C       -11.0434131488        7.7476880777       -2.0584369849
 C       -12.0144691000        2.7571064819       -7.3769708170
 C       -12.0781039276        0.7766900191       -5.7996255026
 C        -5.3944660620        3.7422170984       -4.8085666058
 C        -4.7763890421        1.3785267777       -5.7596898270
 C        -8.4978879458       -0.6055742735       -0.1742712897
 C        -7.1004795240        0.3681431196        1.7196076046
 H        -4.4778024720       -0.1578823279        1.3316340618
 H        -3.8856496619       -0.8779812406       -0.3865165789
 H        -4.4145911945       -1.9643785688        0.9988006923
 H        -4.6148285445        1.4720332271       -0.4498221118
 H        -5.7160190955        2.6755352950        0.1055152513
 H        -4.4115861414        3.3023949077       -1.9842841139
 H        -6.1800839431        3.4259958073       -2.1225472126
 H        -7.1917460459        0.2770541293       -6.0396539385
 H        -7.6572570887        1.7416534468       -6.7938128574
 H        -9.6045072521        0.2648288161       -4.8823644970
 H        -9.6585425454        0.2988555216       -6.6877062900
 H       -13.6011857118        4.3598417041       -4.0796412594
 H       -13.2106364793        4.2848822578       -5.6956893290
 H       -11.8821412977        6.2775840875       -4.6284858714
 H       -10.6888027743        5.0683615979       -5.0222905408
 H       -11.6988313922        6.1792604634        0.5836371389
 H       -10.1263175674        6.9787291284        0.8062963795
 H       -10.3759739576        5.8137192545        2.6640063495
 H        -9.2485457228        4.8910739307        1.8292175841
 H       -13.2347543825        6.1468479391        4.1885569171
 H       -11.5675265835        6.2513633483        4.3933706656
 H       -11.4426346517        5.7747873196        6.6090197236
 H       -12.9613300663        4.7370824626        6.7462186660
 H       -12.8298234587        5.0233319425       11.2444402612
 H       -14.4734792985        5.5853145307       11.1741598449
 H       -13.2797143715        6.7572406987       11.3021896401
 H       -11.6216213721        7.7304449794        9.8204051160
 H       -11.3048047403        8.0984902668        8.1773752297
 H       -11.0786219562        6.4884014934        8.9286984932
 H       -14.2769077825        8.2355483025        9.6987249708
 H       -15.2375568987        7.7395090625        8.2685721651
 H       -14.0144651923        8.8332005885        7.9861620741
 H       -13.0518225333        5.6312501120        1.5737577631
 H       -14.4592537584        4.9955269912        2.4690939312
 H       -13.9007329816        4.2819056207        1.1669680511
 H       -12.1825378569        1.5177650816        2.4350202965
 H       -13.9187710596        2.1170953580        2.2050770020
 H       -13.0718550114        1.9196821654        3.7024858585
 H        -8.4942790265        5.5100320420       -3.0168878842
 H        -8.4416186539        7.1672648905       -2.3884335620
 H        -9.4601584022        6.8066628957       -3.9261738031
 H       -10.6486235938        8.4771812710       -2.7757471732
 H       -10.7127872923        8.1539466418       -1.1015796710
 H       -12.1056400034        7.5279974233       -1.8832578016
 H       -11.4397437825        3.5594249933       -7.9394466931
 H       -13.0921412148        3.0122993378       -7.4512352450
 H       -11.9842137677        1.8662234887       -7.9438861205
 H       -11.8762422238        0.2101725631       -6.7854048048
 H       -13.1370770786        0.7577805607       -5.5348876769
 H       -11.6738401240        0.2430600537       -5.0820939343
 H        -4.4647781035        3.9226170081       -5.2533244729
 H        -5.5693175338        4.3618530886       -3.9663679904
 H        -6.1164309887        3.9244808321       -5.5979222418
 H        -3.8420235801        2.0395783657       -6.0880996116
 H        -5.2555126735        1.3341931046       -6.7452645842
 H        -4.3936637275        0.3815037280       -5.4097469091
 H        -9.2251243905        0.2379424178       -0.1602661287
 H        -8.7143401350       -1.4840670573        0.4774110680
 H        -8.5020023754       -0.8996095975       -1.1476033859
 H        -7.7908912671        1.2757602049        1.9568575291
 H        -6.1391475226        0.7515761714        2.0808074683
 H        -7.2935595069       -0.5296261395        2.2919421385
 Na       -9.5641050141        2.2546686500       -2.6150620107
