117

 C        -4.6294425115       -1.2593485518        0.3458876305
 C        -6.1525495247       -1.3207124141       -0.1354485038
 O        -6.3247463541       -2.2754799999       -0.8317245397
 C        -7.2543919191       -0.2590584414        0.4043812554
 C        -7.1096995114        1.0836072238       -0.5268747387
 O        -8.0547979729        1.6321228685       -0.9801716975
 C        -5.6696049110        1.6150082781       -0.7067475064
 C        -5.5370688364        2.5175838972       -1.9209461085
 C        -5.2459499137        1.7019639964       -3.1546435406
 O        -4.7337050347        0.5786684285       -3.1091105014
 C        -5.5541828849        2.2746434857       -4.5712146514
 C        -7.0524130520        1.8354970001       -4.7274526355
 O        -7.9173256670        2.3748192172       -4.0534045487
 C        -7.5279114529        0.8782236336       -5.7687119925
 C        -9.0140588865        0.6225730261       -5.6256576222
 C        -9.9822740956        1.9144739074       -5.8607722576
 O        -9.4362442691        3.0114443071       -6.0499885278
 C       -11.5102671312        1.9767965140       -5.8624490864
 C       -11.9290361512        2.9663373348       -4.6926976852
 O       -11.7849913561        2.4814318110       -3.5355189075
 C       -12.6962281330        4.2731389611       -4.7291686562
 C       -11.8475330410        5.4167798294       -4.2572858905
 C       -11.4420144754        5.3093721865       -2.7133863892
 O       -12.0745669012        4.6797193188       -1.9170313114
 C       -10.4658377916        6.2798766384       -2.0492008199
 C        -9.9864134017        5.5578916835       -0.8144046050
 O        -9.4109809927        4.4799341044       -0.8778720389
 C       -10.2665455598        6.2616007310        0.5153294933
 C       -10.3802529506        5.3711295412        1.8557397645
 C       -11.0418132633        3.9989919957        1.7472796054
 O       -10.4294360609        3.0131412194        1.4906554445
 C       -12.5204613804        3.8068789373        2.4563781559
 C       -12.2690235763        3.9671155110        4.0638801487
 O       -11.9346763133        2.9656722227        4.6126694660
 C       -12.2667895774        5.3398949749        4.7375769857
 C       -12.3241680301        5.5235676584        6.2599223731
 C       -13.1633460137        6.8477569686        6.6201987298
 O       -13.7626227841        7.4099067331        5.7403960657
 C       -13.1261266521        7.2431835093        8.0787701523
 C       -13.6725430764        5.8477922350        8.9117887025
 O       -14.0461235408        4.8886307406        8.3472201269
 C       -13.8103746869        5.8859173244       10.4375881005
 C       -11.7431188274        7.5936367950        8.6074200863
 C       -14.0139313867        8.4240925890        8.2908602688
 C       -13.3734110667        4.8558602697        1.8608209370
 C       -13.0922389672        2.3520315182        2.2660465978
 C        -9.0628521329        6.5987058217       -2.7901375570
 C       -11.2966653603        7.5990496775       -1.8239964685
 C       -12.0092666423        2.4462765169       -7.2057514522
 C       -12.3058522087        0.6196215355       -5.5333534843
 C        -5.5822462672        3.8435509228       -4.8697069325
 C        -4.5335612852        1.6004541028       -5.5503217531
 C        -8.6153774319       -1.0242877588        0.2501702623
 C        -7.1242924401        0.2592321417        1.9514509582
 H        -4.3491392615       -0.2310242835        0.5553273474
 H        -4.0970901200       -1.7421471869       -0.3799745045
 H        -4.5698600659       -1.8673271488        1.2404577410
 H        -5.0379129671        0.7053203851       -1.0109114464
 H        -5.1194861778        1.9577438474        0.2272443840
 H        -4.7527509702        3.2737571370       -1.8472748806
 H        -6.4993721566        3.1096807775       -2.1855069954
 H        -6.9111301751       -0.1510217582       -5.7628094648
 H        -7.3929625824        1.2302916572       -6.7510034939
 H        -9.2206831073        0.2268104194       -4.6905987668
 H        -9.3862383654       -0.0157618705       -6.4758642727
 H       -13.6781192703        4.1865700747       -4.2010187547
 H       -13.1444028594        4.4976086641       -5.7213524030
 H       -12.3251504458        6.4202832322       -4.4042488828
 H       -11.0002570834        5.4340722745       -4.9226731205
 H       -11.2888882570        6.7163889750        0.4563986316
 H        -9.5415368877        7.0802282260        0.7092658910
 H       -10.8372477016        6.0541115827        2.6164306335
 H        -9.4264740300        5.1909708299        2.3480214033
 H       -13.0326023214        6.0226202889        4.4722674702
 H       -11.3684709757        5.8264575285        4.2791520756
 H       -11.3183777467        5.6670192943        6.6278952810
 H       -12.9632422717        4.8079236821        6.7733584088
 H       -12.8434696872        5.5880973062       10.8819428102
 H       -14.5808620300        5.3317749093       10.9863248332
 H       -13.9329695489        6.8824395852       10.7887901075
 H       -11.8209086227        7.5881921543        9.6906962321
 H       -11.3629264041        8.5112124838        8.3531426691
 H       -10.8340390839        6.9731888348        8.4512718702
 H       -13.8977896417        8.5488218418        9.3533257637
 H       -15.1042593827        8.2097244359        7.9791580861
 H       -13.5354074390        9.1773938503        7.6126858232
 H       -13.2094640929        5.7613195358        2.3507789423
 H       -14.4777423027        4.6641730911        1.9384659862
 H       -13.4613431280        5.1103508060        0.7684775607
 H       -12.2313814259        1.5985088405        2.4805304588
 H       -13.5693520766        2.3159317200        1.3017462378
 H       -13.8885543602        1.9886202458        2.8958497727
 H        -8.5303029859        5.7301570547       -2.8957135105
 H        -8.4687731432        7.2345876283       -2.1504427491
 H        -9.2879081600        7.0162293502       -3.7970287681
 H       -11.3484814538        7.9538200927       -2.8492149902
 H       -10.8374883911        8.4417861737       -1.2970736237
 H       -12.1310596614        7.3000465059       -1.2381893439
 H       -11.4607070188        3.2993626597       -7.5418464259
 H       -13.0560951392        2.7519408819       -7.1352547842
 H       -12.0356237659        1.7395371757       -8.0777073296
 H       -11.8856216627       -0.2514706000       -5.9702260586
 H       -13.3548827158        0.7344310098       -5.8546848175
 H       -12.3463733857        0.3747759426       -4.3919991448
 H        -4.5325416105        4.0821404909       -5.1900908179
 H        -5.8011665368        4.3056870833       -3.8611026414
 H        -6.3188241528        4.1841564771       -5.5714566922
 H        -3.6223741335        1.9943529810       -5.4588446769
 H        -4.8527392160        1.9155433256       -6.5680968452
 H        -4.4935062036        0.5356592624       -5.5205898221
 H        -9.4111641688       -0.3938840827        0.6577812930
 H        -8.4863878076       -1.9381635559        0.8017001749
 H        -8.9027509762       -1.2011435482       -0.8358306633
 H        -7.9131645629        0.8645306917        2.1918784893
 H        -6.1911431748        0.8009518043        2.1695876789
 H        -7.0844948521       -0.6041872957        2.6562436452
 Na       -9.6734721422        2.7605084843       -2.2999853722
