117

 C        -4.6603379866       -1.4197315791        0.5286588524
 C        -6.1421266071       -1.4536676301       -0.0777100971
 O        -6.5443042364       -2.2605532678       -0.8972753952
 C        -7.2545288054       -0.4227176100        0.3714528926
 C        -7.2024431831        0.8458870518       -0.4668546264
 O        -8.1280556033        1.4873998359       -0.8848471332
 C        -5.7498649155        1.4950679377       -0.6779211944
 C        -5.7106025863        2.4556714536       -1.8743665328
 C        -5.2688913739        1.7867588594       -3.2127230616
 O        -4.7526384705        0.6855278838       -3.1745788119
 C        -5.6489370500        2.3151416533       -4.6045992107
 C        -7.1404707492        1.8769866214       -4.8055891778
 O        -7.8764291577        2.3667005966       -3.9508832303
 C        -7.6280236097        0.7513900672       -5.7108028775
 C        -9.1972867510        0.4934561522       -5.6525215213
 C        -9.9232834080        1.8617220468       -5.7975548763
 O        -9.4101548302        2.9337336503       -5.9804750313
 C       -11.5907367642        1.9870353342       -5.8056448438
 C       -11.8990503687        2.8336265103       -4.5468509646
 O       -11.6257240143        2.4299528268       -3.4091726997
 C       -12.4195421288        4.2261905507       -4.8358860630
 C       -11.8741856761        5.4692167552       -4.1087459232
 C       -11.5168635881        5.2874313330       -2.6713854135
 O       -12.1456871125        4.5292858521       -1.9859420818
 C       -10.4682404427        6.3303662369       -2.0286406522
 C        -9.9402908400        5.6118993948       -0.7099049779
 O        -9.2738889486        4.6207288905       -0.7990485689
 C       -10.2449041371        6.2418971314        0.6344356566
 C       -10.3314272572        5.3851508783        1.9077453715
 C       -11.0679823034        4.0043503656        1.8788707541
 O       -10.3410700220        3.0316183471        1.5235534558
 C       -12.4915881373        3.8961308830        2.3663438291
 C       -12.2130090067        3.8539710032        3.9654941226
 O       -11.9646798419        2.7484230059        4.5158570400
 C       -12.2297273553        5.2474196168        4.6296376473
 C       -12.3230880565        5.4815219537        6.1043822102
 C       -13.0257755979        6.8338684806        6.4817091127
 O       -13.5276025488        7.5353462829        5.5972808247
 C       -13.1347801646        7.2255471916        8.0858227820
 C       -13.7134693445        6.0440329492        8.7997933741
 O       -14.1215297396        5.0699511384        8.2272178662
 C       -13.9323456176        6.0854456902       10.3422061015
 C       -11.6037633310        7.5937155593        8.5475674343
 C       -14.0857299970        8.5286429536        8.2179638564
 C       -13.4118937375        5.1878064870        1.7998786374
 C       -12.9238274289        2.4972932439        2.0636143882
 C        -9.1902745430        6.6716893947       -2.9362205696
 C       -11.2068510865        7.6757945938       -1.7790124247
 C       -12.1654892856        2.3672193871       -7.2274890614
 C       -12.1815737983        0.5058525979       -5.5096438846
 C        -5.4717075704        3.8697352433       -4.6479138041
 C        -4.6371048580        1.6791915184       -5.6507745942
 C        -8.6706049369       -0.9998694042        0.4269114287
 C        -6.9719339490        0.0096749313        1.8122661138
 H        -4.5099219325       -0.4819359388        0.9529809515
 H        -3.9917582225       -1.8141661627       -0.2020293820
 H        -4.7178482701       -2.2022381231        1.3041401360
 H        -4.8600045364        0.8008875105       -0.6997163992
 H        -5.5081679612        2.1071734428        0.1734360845
 H        -4.9936729476        3.3000648189       -1.6083225466
 H        -6.6780114392        2.9802069782       -1.9289825935
 H        -7.1198996374       -0.2407276287       -5.5150586361
 H        -7.3217614217        0.9685611985       -6.7040463555
 H        -9.3578561418        0.3818827759       -4.5622920371
 H        -9.6374617706       -0.3078319446       -6.2885453395
 H       -13.5022693065        4.2179588951       -4.6499912443
 H       -12.5624170167        4.4593184750       -5.8883793499
 H       -12.6702326764        6.2541391443       -4.1848292717
 H       -11.0551608678        5.8626378044       -4.6436036013
 H       -11.1414782379        6.8394878860        0.6437755934
 H        -9.4025978648        6.9528834370        0.7805316387
 H       -10.5293296488        6.1050546869        2.7495758946
 H        -9.2857478949        5.0917245265        2.1940257025
 H       -13.1131277153        5.8909745659        4.3265190021
 H       -11.3602364587        5.8189433576        4.1166392020
 H       -11.2244361506        5.8848983226        6.3988633049
 H       -12.7319262697        4.6368542674        6.7276440543
 H       -12.9036602147        6.0276050749       10.7412339283
 H       -14.4691561248        5.3878794683       10.8833663881
 H       -14.2712273047        7.0437899749       10.7250747859
 H       -11.3472489062        7.7034633264        9.5816095459
 H       -11.2387232192        8.4434694661        7.9908569039
 H       -10.8033475733        6.9005779367        8.1892068112
 H       -14.0089752562        8.6766061187        9.2903876673
 H       -15.0863891038        8.2474779695        7.9622857107
 H       -13.6533501302        9.3017051760        7.5188711519
 H       -13.1514037923        6.1252274002        2.3647402673
 H       -14.5072804870        5.0268202766        1.9747285822
 H       -13.5256727627        5.4150512323        0.8338259935
 H       -12.3136002770        1.8288789932        2.6748224472
 H       -12.8935716771        2.3649365858        0.9678949109
 H       -13.9439302451        2.2089382079        2.2064494045
 H        -8.5752481399        5.8118854410       -3.2564759002
 H        -8.6061750217        7.3307597515       -2.3431965936
 H        -9.5242362369        7.1803690911       -3.8201549507
 H       -11.5844419423        7.8070669879       -2.7810323370
 H       -10.6214443607        8.5530379251       -1.6538860714
 H       -11.7788900476        7.5948381219       -0.8839793317
 H       -11.8997509716        3.3719391296       -7.6365232090
 H       -13.2575680157        2.2295170228       -7.2963602913
 H       -11.7807874785        1.7418028219       -8.0224431390
 H       -11.5696007109       -0.3557256008       -5.9590159727
 H       -13.2342511325        0.3147122796       -5.7943198392
 H       -12.1067671352        0.2954386392       -4.5439579804
 H        -4.3680911630        3.9877576793       -4.5781298990
 H        -6.0591655559        4.4345803295       -3.8565762607
 H        -5.7878461487        4.2367982967       -5.6473839315
 H        -3.6479178417        1.7945250743       -5.1864787787
 H        -4.5854226239        2.0739294655       -6.6476322704
 H        -4.8317592870        0.6679831666       -5.7254852600
 H        -9.3924973207       -0.2999899011        0.9944798540
 H        -8.4666135733       -1.8718115414        1.0546698339
 H        -9.0954614249       -1.1780786636       -0.4654938375
 H        -7.8599407209        0.5718083782        2.0971345888
 H        -6.0870293853        0.5608522618        2.0096810381
 H        -6.9593238572       -0.8336668687        2.4983735673
 Na       -9.7307238976        2.9966066153       -2.1816835988
