117

 C        -4.9997545667       -2.1700885486        0.6370291165
 C        -6.3138292460       -1.6462846046       -0.1401378838
 O        -6.7393152142       -2.2979733258       -1.0307209585
 C        -7.2970948981       -0.5105269096        0.6025622586
 C        -7.3409902846        0.7790040966       -0.3709034824
 O        -8.4413230494        1.0016397952       -0.8939438682
 C        -6.0890929360        1.4421434946       -0.6888777662
 C        -5.9022201408        2.3410132859       -1.9735744453
 C        -5.3734244485        1.6814080385       -3.1324585780
 O        -4.6282868270        0.7182488480       -3.1410215610
 C        -5.8376436870        2.2450446250       -4.5268547996
 C        -7.3488184599        1.9421320680       -4.4375861078
 O        -8.1428618603        2.5468967337       -3.7059080058
 C        -7.6309910219        0.8130649642       -5.4272394907
 C        -9.1061027948        0.5053870908       -5.4378043781
 C       -10.0165802413        1.7803592200       -5.8772970138
 O        -9.5970440145        2.8952845109       -6.2552118935
 C       -11.5206680954        1.7243021963       -5.7442662458
 C       -11.6283540674        2.7991851533       -4.5506992452
 O       -11.2381830586        2.4123596527       -3.4424875902
 C       -12.1812080834        4.0659308854       -4.8806048725
 C       -11.9175977127        5.3999601392       -4.0630473368
 C       -11.5421573697        5.3006253883       -2.5428355705
 O       -11.9855059701        4.4350230415       -1.8453921293
 C       -10.5329034775        6.4452545971       -1.9242780067
 C        -9.9083101760        5.9093376248       -0.5977678120
 O        -9.0532762655        5.0355309726       -0.6093613190
 C       -10.2706127152        6.4804126859        0.7840325055
 C        -9.8159528431        5.3682543179        1.8858306981
 C       -10.6775105919        4.0102085019        1.8422814325
 O       -10.0488757417        3.1015082598        1.4383951239
 C       -12.3589638071        4.0396902504        2.1564282637
 C       -12.2358605604        3.9535635497        3.8483838082
 O       -12.1744217088        2.9744545319        4.4905148976
 C       -12.4761936947        5.2522692134        4.4948838754
 C       -12.3689811611        5.4625547404        6.0525784888
 C       -12.8623914668        6.8969888426        6.3701695647
 O       -12.8685950586        7.6119625636        5.4034264277
 C       -13.0023779635        7.2569996613        7.8838344054
 C       -13.9120453774        6.1500392707        8.7034058182
 O       -14.4662557393        5.2647998013        8.1419052165
 C       -14.0054623975        6.6081967762       10.1006961389
 C       -11.5451248308        7.6170372217        8.4580277988
 C       -13.8470806956        8.6207370760        7.8011016944
 C       -13.1651452365        5.2944113261        1.8098819738
 C       -12.9349682474        2.8217196599        1.3477458156
 C        -9.4282885288        6.4378921391       -2.9832504039
 C       -11.2705633255        7.8379934877       -1.6646414775
 C       -12.2804952580        2.0440779317       -7.0826943011
 C       -11.9919128484        0.3339106201       -5.3386426648
 C        -5.5497169701        3.8480182579       -4.3803097438
 C        -5.1405856794        1.8282425737       -5.7638482724
 C        -8.7199874421       -1.1298635267        0.5977154854
 C        -6.7858714844       -0.0846793762        2.0165576701
 H        -4.4506691880       -1.3738751871        1.2651384292
 H        -4.4693878702       -2.6884942986       -0.1657573864
 H        -5.2408130444       -3.0435827295        1.2664248008
 H        -5.4873129105        0.5903560940       -0.7221332921
 H        -5.6571073323        1.9344834045        0.1800662443
 H        -5.2988814141        3.1635986620       -1.6972630511
 H        -6.8370769218        2.8889272073       -2.1967116223
 H        -7.1904567838       -0.2135512643       -5.2740378588
 H        -7.2730406773        1.0193088235       -6.4500907734
 H        -9.3610450247        0.0431006243       -4.4878907902
 H        -9.1919795602       -0.1421509633       -6.3115517873
 H       -13.2198952358        4.0257097322       -5.1485427430
 H       -11.8855626340        4.3034524809       -5.8934685148
 H       -12.9203869970        5.7983922063       -4.0875848211
 H       -11.2446396803        6.0971232299       -4.6583312154
 H       -11.3343878768        6.7794295105        0.8404302564
 H        -9.7326851117        7.4289198783        0.7571366186
 H        -9.6786520507        5.6861448762        2.9013053807
 H        -8.8014308462        5.1470291509        1.6659613778
 H       -13.3821573669        5.7248389082        4.2462908794
 H       -11.8030729506        5.8522940314        3.9071237821
 H       -11.3830077970        5.3691108738        6.2614156083
 H       -12.9446984389        4.6586720172        6.5201416805
 H       -13.2049090752        7.1261047780       10.6007216390
 H       -14.2237449038        5.7744814404       10.8283942137
 H       -14.9020500700        7.2062585213       10.2232402113
 H       -11.6358710551        8.0820701136        9.4685458191
 H       -10.7601085341        8.0416872932        7.8625551013
 H       -11.0098238235        6.6975459640        8.6739547295
 H       -13.8989257866        9.1917816033        8.6675551795
 H       -14.7670124359        8.0540056692        7.5544084471
 H       -13.5085000757        9.0715039897        6.9261310062
 H       -12.6996980663        6.2088950348        1.8803952095
 H       -14.1579449819        5.4503396865        2.1557748399
 H       -13.5345979020        5.1839698777        0.6860085285
 H       -12.8633645076        1.9540925956        2.0820039935
 H       -12.5134308872        2.4934393953        0.4213656645
 H       -13.9756697736        2.9204863584        1.0504157629
 H        -9.4066684372        5.4818946264       -3.5038674118
 H        -8.3948126065        6.8067432282       -2.6365782503
 H        -9.7751348904        7.2146070681       -3.7897238700
 H       -11.3647523847        8.2501577341       -2.6702665773
 H       -10.5056387166        8.4261156366       -1.1138226584
 H       -12.0374832619        7.8321081882       -0.9252364498
 H       -11.7927559004        2.8563144641       -7.5669617084
 H       -13.3481073258        2.2248702724       -7.0696667029
 H       -12.0931329552        1.3569854364       -7.9344141636
 H       -11.9963800358       -0.3405809383       -6.1285687676
 H       -13.0262550233        0.2523028934       -5.0354875116
 H       -11.3222050812       -0.2391465979       -4.5646974393
 H        -5.0058040152        4.0762971112       -3.4852055925
 H        -6.5045354496        4.2765416807       -4.3467676966
 H        -5.0540107436        4.2425967580       -5.2214806862
 H        -4.0809773344        1.8149867679       -5.5893103831
 H        -5.3935950653        2.5737520448       -6.6365121230
 H        -5.4958007383        0.8341278635       -6.2275358627
 H        -9.4127646919       -0.3558380749        0.7249734767
 H        -8.8490547529       -1.8035860988        1.4130513333
 H        -8.9066442001       -1.5102723654       -0.4820460931
 H        -7.4712340919        0.3962948183        2.6761291076
 H        -5.7865595289        0.4212436345        1.8840272631
 H        -6.5022239159       -1.0098229529        2.5634404321
 Na       -9.4823449959        3.0135610251       -1.9770503428
