117

 C        -5.5043251219       -2.6370479508        0.5629726295
 C        -6.6274274655       -1.8911896864       -0.1186303801
 O        -6.8847889357       -2.1293247173       -1.3165565396
 C        -7.4657129142       -0.7479734001        0.6967197846
 C        -7.4249150359        0.4289769640       -0.2858640962
 O        -8.3786765051        0.8272703022       -0.9218238156
 C        -6.0183694434        1.1553232187       -0.5315008085
 C        -5.8458466508        2.2087898407       -1.6362907221
 C        -5.3454262520        1.7205348179       -3.0406096045
 O        -4.6290007900        0.7538029383       -3.0777281465
 C        -5.9213092043        2.5418174362       -4.3281201193
 C        -7.4485736478        2.0891609051       -4.5854351658
 O        -8.2982463937        2.6980463212       -3.9157536708
 C        -7.7680993396        0.7992064555       -5.3825437740
 C        -9.3343637790        0.4869313943       -5.3042665571
 C       -10.0423168749        1.6577937853       -5.9791436060
 O        -9.5562022984        2.3593557500       -6.7721393223
 C       -11.6877113545        1.6151611956       -5.5488965327
 C       -11.5398561729        2.6967631537       -4.4911566349
 O       -10.9388259787        2.4131768323       -3.4721298276
 C       -12.2141839125        4.0967823768       -4.7602353037
 C       -12.1049367542        5.3175212573       -3.7677550329
 C       -11.4434147905        5.2033685949       -2.3865597823
 O       -11.7888924933        4.3478148619       -1.5557937615
 C       -10.4843001113        6.4026759373       -1.9433098059
 C        -9.7511448394        5.9054530730       -0.6517553720
 O        -8.9202690215        5.0013455236       -0.7099357359
 C        -9.9761830612        6.5511669042        0.6625252162
 C        -9.8474681298        5.6678992802        1.8340087094
 C       -10.5384366535        4.1870006626        1.7804652657
 O       -10.0771520592        3.1647848903        1.2591156600
 C       -12.0704675028        4.1098712062        2.0289735139
 C       -12.3106615043        4.0453659186        3.4761605739
 O       -12.3295633093        2.9423631653        3.9757037357
 C       -12.6396241375        5.3698047880        4.2710369340
 C       -12.6387495454        5.4098031339        5.8611106699
 C       -12.6802738182        6.8904134440        6.2191686818
 O       -12.1981758829        7.6916167285        5.4020107343
 C       -12.9886500653        7.4560835787        7.7088088468
 C       -13.9939422657        6.5813631847        8.5626341415
 O       -14.5152829959        5.5316985243        8.0558662291
 C       -14.2157117342        6.9203198673       10.0409034445
 C       -11.6626744893        7.4874793115        8.5307954718
 C       -13.6603435067        8.8763350372        7.4965464338
 C       -12.6764761745        5.3502142897        1.2921027977
 C       -12.6625487297        2.7733438426        1.4719205648
 C        -9.3736039350        6.6957646230       -2.9200347778
 C       -11.3342144388        7.7214094691       -1.9029221050
 C       -12.4306114249        1.9667519986       -6.8295718043
 C       -12.1455806799        0.3383623722       -4.9606691179
 C        -5.8956658950        4.0684271370       -4.1549160962
 C        -4.9735278641        2.0115577933       -5.4871476432
 C        -8.8968194437       -1.4384692903        1.0556203844
 C        -6.8025096645       -0.1615987615        2.0093836883
 H        -4.8071786044       -1.8869972548        0.7857895644
 H        -5.1152883808       -3.5786145519        0.1442487369
 H        -5.9337733809       -2.8761321141        1.5282176952
 H        -5.0325902456        0.5823927317       -0.2784419999
 H        -6.0510664113        1.8051895333        0.3863553735
 H        -4.9917428903        2.8341363534       -1.2070964510
 H        -6.6181473776        2.9554998127       -1.5812988283
 H        -7.1750527027       -0.0081523812       -5.1005864096
 H        -7.5008360787        0.9317361470       -6.4552201752
 H        -9.6854380414        0.4844712923       -4.2740874959
 H        -9.5730660676       -0.3870187471       -5.8716414664
 H       -13.3075747143        3.9095437227       -4.9599833800
 H       -12.0291447965        4.5799816165       -5.7537239228
 H       -13.1291093493        5.7334030633       -3.6362498264
 H       -11.4585465012        5.9861213367       -4.2712402607
 H       -10.9240797062        7.0807497659        0.5863693599
 H        -9.2433654814        7.3713702089        0.8632214443
 H       -10.2108186047        6.2199413018        2.7209439185
 H        -8.7452891589        5.7162938167        2.0138084918
 H       -13.7884160312        5.2815256956        4.0100077882
 H       -12.4226264250        6.3134176308        3.7429287253
 H       -11.5392213068        5.1257578167        6.1286057618
 H       -13.3542158632        4.6980343103        6.3052379205
 H       -13.6535672083        7.7966593081       10.3344374223
 H       -13.9715640757        6.2127946229       10.7977256971
 H       -15.2537132911        7.1747422463       10.3101208841
 H       -11.4854039595        8.1285372512        9.3472015089
 H       -10.8412547748        7.6912515584        7.8148662440
 H       -11.3116092895        6.4815236276        8.7898011434
 H       -13.8911082920        9.2669324189        8.5557823221
 H       -14.4746809126        8.6890230619        6.8427031879
 H       -12.7737756121        9.4800416303        7.1475227721
 H       -12.5476726868        6.3888832198        1.7699967646
 H       -13.7852848436        5.2259956080        1.2788513139
 H       -12.4433386248        5.5692005827        0.2910890383
 H       -12.1662365985        1.8664529239        1.5742433155
 H       -12.7181602785        2.9459856671        0.3402252650
 H       -13.7507446299        2.6637218136        1.6901816652
 H        -8.9185213343        5.7221989477       -3.2534010532
 H        -8.6717655524        7.2767988906       -2.3667679139
 H        -9.5590590149        7.2762758204       -3.7496169338
 H       -11.5297347992        7.9608125794       -2.9531944452
 H       -10.9213477236        8.4792469771       -1.2205880985
 H       -12.3131873973        7.3897176419       -1.3858899923
 H       -11.9922859550        2.3982137122       -7.7229302375
 H       -13.3586894490        2.4514622963       -6.5650668293
 H       -12.7733858037        1.0899727338       -7.2618762529
 H       -11.8560280853       -0.6055478649       -5.4761296067
 H       -13.2050791634        0.1671559298       -4.9755093412
 H       -11.7659680880        0.2345528880       -3.9380076859
 H        -5.4266044231        4.3802650740       -3.2324938980
 H        -6.8492350904        4.6061014120       -4.2582737314
 H        -5.1888177669        4.3719156205       -4.9866799610
 H        -4.1592796188        2.7130195580       -5.7671483255
 H        -5.5168141182        1.7893729510       -6.2708298845
 H        -4.5494815280        1.0916714215       -5.2062053580
 H        -9.6305110008       -0.7173926781        1.4485345574
 H        -8.7372717569       -2.2120144590        1.8388075911
 H        -9.2595315560       -1.8625722345        0.1324051772
 H        -7.5538881337        0.6486174988        2.2862830680
 H        -5.8544614717        0.2678889849        1.8343585933
 H        -6.7781913579       -0.7509737988        2.8994905278
 Na       -9.2528618144        2.9229933027       -1.5112745592
