117

 C       -13.2376722729       -2.1112470505       -6.5600546690
 C       -11.8077674245       -2.6367506241       -6.2780111496
 O       -11.4645493384       -3.7750002127       -6.4800609943
 C       -10.7682733160       -1.6568792654       -5.5706932823
 C       -11.3160461402       -1.1732395749       -4.2892397933
 O       -11.8370198274       -0.0964003208       -4.2444637092
 C       -11.5214938776       -2.1159959952       -3.0650904259
 C       -12.1580568810       -1.6719194149       -1.7993687642
 C       -11.5039322818       -2.3128647293       -0.5528807158
 O       -11.5916163826       -3.5105648395       -0.2811643636
 C       -10.5082977402       -1.3058893145        0.4371310820
 C       -11.5843263393       -0.7073209288        1.4332243208
 O       -12.6957988650       -1.1756720353        1.3498428472
 C       -11.1343184028        0.3774276941        2.5140363044
 C       -11.8954822348        1.7786629946        2.6658247573
 C       -11.0816541403        2.9491038547        3.2757951356
 O        -9.9388298826        3.0939958842        2.8854801609
 C       -11.6039402832        3.9080318587        4.3748380304
 C       -11.7846684283        5.2729388323        3.6159378324
 O       -10.8665089301        5.9773356519        3.4521779401
 C       -13.1994372096        5.5784805531        3.0394153441
 C       -13.4451064963        5.1641657336        1.5694988800
 C       -12.2354737664        5.5094230060        0.5675801328
 O       -11.4451445639        4.6191305155        0.4842020085
 C       -12.0651376144        6.6495999317       -0.3261979083
 C       -10.6088931243        6.9638971158       -0.7166602626
 O        -9.6330370332        6.3684818712       -0.3463082609
 C       -10.3985651587        7.9002829565       -1.9356243112
 C        -8.8820237647        8.3077964180       -2.0651924823
 C        -8.2453058909        9.2490993231       -1.0221499427
 O        -8.8831382663        9.7920498425       -0.1471254772
 C        -6.6565835593        9.4757963802       -1.1650670383
 C        -5.9514932815        8.4696600695       -0.1836173422
 O        -5.5379369007        7.3456939164       -0.5594298967
 C        -5.9420368852        8.8383047702        1.3383398465
 C        -5.3637532530        7.8076622792        2.2759291050
 C        -6.2326583239        6.4671653285        2.4049613803
 O        -7.4319226092        6.6720522381        2.5666494620
 C        -5.6666750686        5.0337458392        2.1862283386
 C        -6.3193276131        4.7086020328        0.6819397330
 O        -7.5241988475        4.5085768637        0.6712515655
 C        -5.4787237479        4.5546592411       -0.4890894709
 C        -4.1533140262        4.8443326806        2.2481534895
 C        -6.2614040331        3.9620206024        3.1533501800
 C        -6.0648219001        9.1282742143       -2.5466614838
 C        -6.4334607622       10.9630323268       -0.8826969765
 C       -12.7994821604        6.1690964440       -1.6485314381
 C       -12.6985914297        7.8672678700        0.3101271514
 C       -12.8590727827        3.4189426681        5.1152641299
 C       -10.5299127901        4.0793805409        5.4445116879
 C        -9.6175194661       -2.1995002143        1.3435082944
 C        -9.6376349494       -0.3491084747       -0.4871197455
 C        -9.4739446326       -2.4982739572       -5.2495075713
 C       -10.4474536249       -0.4559713933       -6.4746970883
 H       -13.3684633342       -1.5619295909       -7.4792961324
 H       -13.5799455495       -1.5462755977       -5.6697910467
 H       -13.6813800953       -3.1460011579       -6.7779073858
 H       -10.5303621623       -2.6589390185       -2.7721528115
 H       -11.9843523745       -2.9454837303       -3.5276750950
 H       -13.1806203441       -2.0123434779       -1.7575353179
 H       -11.9913500934       -0.6415531825       -1.7697543740
 H       -10.0774507104        0.5242794271        2.3956451756
 H       -11.2031606649       -0.0856548502        3.4661898958
 H       -12.8943860392        1.4827740756        3.1482525889
 H       -12.2137466115        2.1311271912        1.6977189408
 H       -13.4101326626        6.6482985155        3.2556442421
 H       -14.0385956938        5.0954417316        3.5775986397
 H       -14.4933561899        5.5024217712        1.2350798494
 H       -13.4232027556        4.0773310719        1.4841277983
 H       -11.0315571773        8.7361472371       -1.7870837240
 H       -10.7737036896        7.5361531146       -2.8477662466
 H        -8.7534328090        8.6803163542       -3.0519201434
 H        -8.4687097545        7.3253498124       -2.0192921017
 H        -7.0403108681        9.0276314886        1.5644264644
 H        -5.4345590173        9.8688333681        1.3575831107
 H        -5.1678793164        8.1617494619        3.3414826430
 H        -4.3514809937        7.5129635404        1.8958760569
 H        -4.3771762296        4.4742865035       -0.3275597516
 H        -5.7668618168        5.2045469669       -1.3648521742
 H        -5.7030678217        3.4768082928       -0.7869108911
 H        -3.7633037623        5.1517111087        3.1964256009
 H        -3.6009067627        5.4754504316        1.4985863742
 H        -3.8494236372        3.8256358730        2.1495341065
 H        -7.3066698462        4.2008754970        3.3057349887
 H        -5.8615632972        4.0268826903        4.2849061798
 H        -5.9779495150        2.9965112595        2.8012706491
 H        -6.5799387202        9.4582890434       -3.4501714618
 H        -6.0594739208        8.0432460855       -2.7076267942
 H        -5.0580821312        9.3175437771       -2.4916183035
 H        -5.4041300043       11.1049580213       -0.8921080683
 H        -6.8377904326       11.4749507108       -0.0647947858
 H        -6.7928540624       11.4066072851       -1.7658363442
 H       -13.7144569611        5.6052105852       -1.3830642289
 H       -12.1196973869        5.4386813121       -2.2143314714
 H       -13.0982231620        6.9918455874       -2.2740422472
 H       -12.2746271364        8.1889788856        1.2532243674
 H       -13.7462634791        7.6636205669        0.6264718273
 H       -12.5629871108        8.8375120602       -0.3095608354
 H       -13.7585488170        3.0988793292        4.5015882142
 H       -13.2044222118        4.2045180682        5.7741017171
 H       -12.6752696630        2.6639395355        5.8810413764
 H       -10.6530285884        3.2892011113        6.1765829357
 H       -10.6789821561        4.9737015871        6.0340806914
 H        -9.4674022867        3.9940067234        5.1601082938
 H        -8.9352861571       -2.7684810974        0.7270927657
 H       -10.2636529683       -2.9399511118        1.8274913639
 H        -9.1641242806       -1.6223025387        2.1454796729
 H       -10.1050066227        0.1405200904       -1.3685475471
 H        -8.9562907004       -1.0013818165       -0.9804107549
 H        -9.1473949516        0.3726357618        0.1145317050
 H        -9.8123064770       -3.3065903069       -4.6721251805
 H        -8.7684805901       -1.7467004663       -4.8558625841
 H        -9.1099436396       -2.8927744244       -6.2453081967
 H       -11.2919668147       -0.2422626419       -7.1112527953
 H        -9.5978826605       -0.5223919353       -7.1844698866
 H       -10.1969933678        0.5012005837       -5.9912055686
 Na       -9.1483820599        5.0453546983        1.9057575751
