117

 C        -6.2513370199       -3.3905306123        0.5436622097
 C        -6.9031853621       -2.2380208061       -0.1092415131
 O        -6.9943638143       -2.0972152711       -1.3565752710
 C        -7.4846986804       -0.9586615974        0.7353365961
 C        -7.4470232128        0.4223517500       -0.1398713184
 O        -8.4583252129        0.7606940833       -0.7002835855
 C        -6.0511791976        1.0398417394       -0.4744337623
 C        -6.2399363630        2.2342693144       -1.4263785455
 C        -5.5582656965        1.7922607869       -2.7654957989
 O        -4.9231602889        0.7574001954       -2.8649148412
 C        -5.9081256490        2.6855348685       -3.9508959658
 C        -7.3573232609        2.1919742585       -4.3115860790
 O        -8.3322116795        2.7710320366       -3.8684437919
 C        -7.6306665034        0.9602564497       -5.1758978898
 C        -9.1695075597        0.4856386789       -5.0911148300
 C       -10.2544563825        1.1488973114       -5.9973078995
 O       -10.1698801484        1.1497011401       -7.1633739482
 C       -11.6743570717        1.6322286662       -5.3595300157
 C       -11.4742048358        2.6930726252       -4.2775382032
 O       -10.6652987338        2.5470953563       -3.3713044622
 C       -12.3926148286        3.9527265079       -4.3897250603
 C       -12.1030498965        5.2493120118       -3.4728119809
 C       -11.1484183807        5.1475077916       -2.3525897937
 O       -11.1859848080        4.1546102323       -1.6234895235
 C       -10.2843075704        6.3918562036       -1.9404491379
 C        -9.2663945781        5.9053826915       -0.7333774155
 O        -8.3947177091        5.0793391643       -1.0009186636
 C        -9.4155955239        6.6798828919        0.6030212584
 C        -9.9158385600        5.8961721956        1.6997987460
 C       -10.6026359069        4.5062280265        1.3625607957
 O        -9.9200627182        3.5687134091        0.8862752251
 C       -12.0123822343        4.0917908545        1.7694130760
 C       -12.2852774080        4.2914375957        3.2756271605
 O       -12.2864184813        3.2907894348        3.9752455635
 C       -12.8935956714        5.6902582248        3.8086163283
 C       -13.0286723542        5.6686650906        5.3751259992
 C       -12.3811555823        6.9683198385        6.1253980818
 O       -11.4842804761        7.5053183751        5.4577066840
 C       -12.8070405217        7.5687074269        7.5703915294
 C       -14.0829332619        6.7866741131        8.3192373176
 O       -14.7489808345        5.9230509402        7.7005425576
 C       -14.4994623583        7.3674748818        9.6173181734
 C       -11.5739959333        7.4494762640        8.4959463447
 C       -13.1694903984        9.0259776979        7.1827395816
 C       -13.0921344788        5.1128742478        1.1235428128
 C       -12.3102775768        2.7742650200        1.1029118095
 C        -9.4021281105        6.7068927386       -3.1490736961
 C       -11.2690496394        7.5894433386       -1.4993135171
 C       -12.5804863615        1.9648902290       -6.4730967614
 C       -12.2689886640        0.4525382278       -4.5054568132
 C        -5.9650073725        4.1990608966       -3.5549915830
 C        -4.9489117291        2.4347307237       -5.1884043822
 C        -9.0761684763       -1.1509542910        0.9636079896
 C        -6.7067806462       -0.7238192056        2.0250756106
 H        -5.1818783341       -3.0967585195        0.5786754523
 H        -6.2765857951       -4.2733932135       -0.1545433433
 H        -6.5645373139       -3.6886878312        1.5953641755
 H        -5.3572867326        0.3376103585       -0.8617293283
 H        -5.6567184299        1.2878821368        0.4710319608
 H        -5.7742662968        3.0636716826       -0.9452573853
 H        -7.2822882875        2.5573131463       -1.4630580004
 H        -6.8792503297        0.1082902553       -5.0058430536
 H        -7.3667940995        1.2660733017       -6.2056008966
 H        -9.4371787483        0.7106091453       -4.0965643696
 H        -9.2698581039       -0.6223239349       -5.3019003808
 H       -13.4324576949        3.6357580650       -4.2084896197
 H       -12.3762988920        4.3740597501       -5.4035868318
 H       -13.0355546702        5.6719260011       -2.9649455373
 H       -11.6141002063        5.9330755642       -4.1190080521
 H        -9.9215921265        7.6419577744        0.5455198556
 H        -8.4063632762        7.0600462478        0.8295122035
 H       -10.4506313054        6.6338555717        2.2873422959
 H        -9.1165924524        5.4970523738        2.2586186674
 H       -13.8241789426        5.7062678533        3.3924408672
 H       -12.4601618938        6.6521981589        3.5058951942
 H       -12.2434468889        5.0061359830        5.6901883787
 H       -13.8838965053        5.2124759417        5.6197567810
 H       -14.6523925773        8.4653809670        9.7399105769
 H       -13.8154919761        7.1398197258       10.4106284106
 H       -15.4046862139        6.9045006596       10.0324858486
 H       -11.7919020675        7.7753347487        9.5053073485
 H       -10.7548873982        8.1429314337        8.2908174271
 H       -11.1424164169        6.3888193787        8.6442915399
 H       -13.4064252929        9.5855315696        8.0660210315
 H       -13.9138649399        8.9724070966        6.4920057649
 H       -12.1828134764        9.3317084204        6.8377835428
 H       -12.8417311576        6.1494756543        1.4117602418
 H       -14.0901481555        5.0478743836        1.5920764083
 H       -13.0993545316        5.2338773153        0.1335783368
 H       -11.6315290277        1.9621750022        1.2551034496
 H       -12.0617359834        2.8848657406        0.0173240092
 H       -13.3111741839        2.3968608100        1.2950850526
 H        -8.2769789460        6.5422163266       -2.9499096309
 H        -9.4957848805        7.6396739861       -3.7584130634
 H        -9.5715272462        5.9375025087       -3.9404385619
 H       -12.0333608497        7.8373920302       -2.2612660071
 H       -10.6225183887        8.4153424935       -1.3219927890
 H       -11.9396539332        7.2339952520       -0.7167519679
 H       -12.1943018360        2.8603928374       -6.9944147523
 H       -13.6112264118        2.2462956532       -6.1870724519
 H       -12.5938956584        1.2318474944       -7.2792607620
 H       -12.5602248572       -0.4191289802       -5.1418703209
 H       -13.2017056308        0.5861505151       -3.9654911571
 H       -11.5882918202        0.0987897551       -3.7846063133
 H        -4.9506369068        4.4373447557       -3.3411869223
 H        -6.5349410354        4.4699327476       -2.6794508851
 H        -6.2368985594        4.8085733955       -4.4025414626
 H        -3.9218390273        3.0529320474       -5.0461721061
 H        -5.4013152448        2.8255353924       -6.0828011825
 H        -4.6030614658        1.3599226938       -5.3104936218
 H        -9.2897166862       -0.2922741146        1.6768305416
 H        -9.4231762020       -2.0889941498        1.3744798990
 H        -9.5705735373       -0.9870383234        0.0718737588
 H        -6.8645469920        0.2382240856        2.5345938888
 H        -5.6355703351       -0.8014015154        1.8199158335
 H        -7.0156229161       -1.5228293608        2.7627873551
 Na       -9.5236746315        2.6486096559       -1.4142932269
