117

 C        -6.5934777438       -3.5536830835        0.4726926036
 C        -7.0866598893       -2.3062859413       -0.1901111992
 O        -7.0056395190       -2.1558051986       -1.3846334022
 C        -7.6015712196       -1.0560366351        0.6966581542
 C        -7.3973084885        0.2771362738       -0.1363701122
 O        -8.4659826537        0.7945066347       -0.4740572886
 C        -6.0805746671        1.0418180827       -0.1426998328
 C        -6.1844766728        2.1275733152       -1.3397913032
 C        -5.6539230748        1.7507666857       -2.7580768832
 O        -4.9285727198        0.8264323952       -2.9977569641
 C        -6.0412254824        2.7142303366       -3.9411467940
 C        -7.4506412576        2.3573878006       -4.2919318624
 O        -8.3054064518        2.9765605177       -3.6182041389
 C        -7.6924191582        1.1356339490       -5.1521139404
 C        -9.0448971509        0.4851950591       -4.9590811493
 C       -10.3103048188        0.9799321961       -5.9038254757
 O       -10.2880916392        0.7471651268       -7.0846979778
 C       -11.6635796468        1.6461138407       -5.4211408496
 C       -11.4085360134        2.6968842151       -4.2747142950
 O       -10.6389554439        2.3494204265       -3.4323931029
 C       -12.3645841401        3.8973205149       -4.2145550341
 C       -12.1187886647        5.2737217694       -3.4852286648
 C       -11.2094709070        5.1703689218       -2.1346235282
 O       -11.1925107327        4.1756898858       -1.4322073365
 C       -10.1816693017        6.3498693337       -1.8955219280
 C        -9.0890605480        5.9851615047       -0.8450329113
 O        -8.2380688709        5.1947116139       -1.1628431505
 C        -9.1239431770        6.6263120177        0.5284850641
 C       -10.0385388709        5.9485357346        1.6866272074
 C       -10.6394823665        4.5593036702        1.2565684728
 O        -9.8532071387        3.7352018644        0.7863736283
 C       -12.1401729070        4.2561569304        1.6371559474
 C       -12.3989228067        4.3409605741        3.2720061257
 O       -12.1464427798        3.4898985461        3.9999724166
 C       -12.7337482239        5.7063864251        3.7955186316
 C       -13.0762674325        5.7460156591        5.3219618383
 C       -12.2420056173        6.7832612655        5.9719468295
 O       -11.3266976914        7.4210313176        5.5018984620
 C       -12.7549892910        7.4415592050        7.3659151747
 C       -14.0537045025        6.9993117826        8.0697592964
 O       -14.7471525009        6.0948867034        7.5267473405
 C       -14.5079447857        7.4809233281        9.4352742189
 C       -11.6330246346        7.3533132063        8.4027205086
 C       -13.0380098353        9.0335929582        7.0428834131
 C       -13.1535834437        5.1748925165        0.8826113474
 C       -12.3670998975        2.7761445534        1.3273792789
 C        -9.4408931854        6.7551177889       -3.1044624929
 C       -11.0515263040        7.6195571078       -1.4971401860
 C       -12.6916001612        1.8114825443       -6.6136323846
 C       -12.2529725006        0.4296169837       -4.4617684912
 C        -5.9437269664        4.1613355386       -3.4528083148
 C        -4.9577309138        2.5398393143       -5.0885868966
 C        -9.0782672184       -1.2477429069        1.1457810612
 C        -6.7938971298       -0.8202793671        1.9529334134
 H        -5.5223648851       -3.5341896186        0.7293764048
 H        -6.7014123612       -4.4766411715       -0.1959877932
 H        -7.1554637663       -3.6753084027        1.3384265610
 H        -5.1362990372        0.4372765809       -0.1029089658
 H        -6.1976503314        1.4730734318        0.8863875081
 H        -5.6662038026        2.9963998608       -0.8808659500
 H        -7.1865100305        2.4372540186       -1.3556343226
 H        -6.9578911208        0.4857527056       -5.0427365160
 H        -7.5792710486        1.4342244898       -6.2596032704
 H        -9.2418110058        0.4719989190       -3.8829994716
 H        -8.9430659130       -0.4902024166       -5.3211940485
 H       -13.2253628720        3.4848234910       -3.6063036118
 H       -12.7716992945        4.1857744330       -5.2244827886
 H       -13.1019991341        5.6485221807       -3.1034064757
 H       -11.6113359271        5.9294268852       -4.1645001036
 H        -9.4687259191        7.6508896307        0.4715886057
 H        -8.0465627480        6.8270206911        0.7481014810
 H       -10.7657466028        6.7375748259        1.8631699829
 H        -9.4749753656        5.6004782133        2.5581410254
 H       -13.6131803239        6.1779238029        3.2131387170
 H       -12.0299852796        6.4151954045        3.6738892793
 H       -12.8996293859        4.8660470638        5.9189129369
 H       -14.1741990443        5.8497561205        5.4690936091
 H       -14.9724150688        8.4550014844        9.4860068214
 H       -13.9426673422        7.4713762396       10.3665321863
 H       -15.3592390294        6.8098369688        9.7128578024
 H       -11.7700825742        7.6853944417        9.4087473955
 H       -10.7146064554        7.9365747940        8.1076614761
 H       -11.3710911877        6.3404461211        8.5224192040
 H       -12.9864789642        9.4151880281        8.1024150264
 H       -14.0947844594        9.0281454005        6.7804028297
 H       -12.3162198454        9.4664155213        6.3509598099
 H       -13.2939507325        6.2091585422        1.2233098803
 H       -14.0707092340        4.8138333658        1.1549615721
 H       -12.9957048113        5.4154342102       -0.2409118384
 H       -11.8300163413        2.2743998967        2.0622703511
 H       -11.7611634019        2.3627003961        0.5085268204
 H       -13.3803818401        2.2887179183        1.4203316791
 H        -8.4250318551        7.2404347829       -2.9035515564
 H       -10.0041037712        7.5147969955       -3.6714162529
 H        -9.2497006227        6.0260218264       -3.8659541915
 H       -11.6638156925        7.9253507933       -2.3493572730
 H       -10.2976598436        8.4110654686       -1.3924062730
 H       -11.9101656627        7.4160552623       -0.8152542935
 H       -12.2904372356        2.4630407784       -7.4227946636
 H       -13.6032690335        2.3293741905       -6.3325540970
 H       -12.9195529317        0.8900663992       -7.0846827126
 H       -12.7725166717       -0.3079220512       -5.0349857163
 H       -12.8609011485        0.5864794038       -3.6185415067
 H       -11.3437190561       -0.1722477487       -3.9311870766
 H        -4.9619556589        4.4300808213       -3.6691031352
 H        -6.1351163627        4.4502795715       -2.4791423391
 H        -6.5392254613        4.8027024424       -4.1214509545
 H        -3.9189306897        2.5951875597       -4.8648181600
 H        -5.2124479764        3.3293473323       -5.7751909878
 H        -5.1111727091        1.5785468696       -5.5971803521
 H        -9.3310373447       -0.4525129521        1.7434822761
 H        -9.0590445962       -2.1927494825        1.7067624646
 H        -9.8274505414       -1.4538143411        0.2653721923
 H        -7.2832208835        0.0733173826        2.5543553258
 H        -5.7806488616       -0.4769377106        1.7734669586
 H        -6.8458217505       -1.6519061188        2.6163648377
 Na       -9.4977802142        2.6339462985       -1.3844153530
