117

 C        -6.9889239124       -3.7053872676        0.4700458351
 C        -7.1608409743       -2.2827684829       -0.2862746971
 O        -7.0732085888       -2.2131092089       -1.4533747817
 C        -7.6329312815       -1.1347317966        0.7911563635
 C        -7.5807155646        0.2756547396        0.0256782288
 O        -8.6072326751        0.8028368309       -0.4064734217
 C        -6.2222221954        1.0416012757       -0.1026549081
 C        -5.9780291648        2.0786330126       -1.2871366478
 C        -5.5475902213        1.6945809917       -2.6381178475
 O        -4.9320689118        0.7196628895       -2.9705932066
 C        -5.9824654810        2.8914259722       -3.9046394150
 C        -7.5106846015        2.5376600004       -4.1172438407
 O        -8.3588237600        3.1335472303       -3.4746771836
 C        -7.9616966479        1.4215765039       -5.1942897702
 C        -9.1957170713        0.5394583742       -4.9559730393
 C       -10.2955012317        0.7789252170       -5.9066792659
 O       -10.2080299877        0.3368140045       -7.0872180847
 C       -11.6271493251        1.3938232419       -5.3299330378
 C       -11.4596776525        2.6187042768       -4.2929816751
 O       -10.6973434357        2.3059599863       -3.3980050000
 C       -12.4738964828        3.8576215011       -4.0131517746
 C       -11.9713836798        5.1527151901       -3.4541693129
 C       -11.1183223299        5.1484311993       -2.1448510544
 O       -11.3934315043        4.2967296545       -1.3564517731
 C       -10.1371404469        6.4145497353       -1.9728435309
 C        -9.0220196421        5.9706645287       -0.8367561558
 O        -8.1454194823        5.2675939515       -1.2767439028
 C        -8.8444068373        6.5152643580        0.6067561583
 C       -10.1393951550        6.1448092538        1.5609389439
 C       -10.5917040078        4.6793692522        1.2897761571
 O        -9.8984945651        3.8738267066        0.7442583179
 C       -12.2201525519        4.2927898078        1.6600250742
 C       -12.3080619715        4.5320433856        3.2152683028
 O       -11.9748564046        3.5437629019        3.9104627416
 C       -12.6778936973        5.8827824259        3.7813912185
 C       -13.0826599985        5.8651103367        5.2505010935
 C       -12.2764181153        6.8965867031        5.9194598283
 O       -11.1842474883        7.1695811444        5.4983236459
 C       -12.7376089770        7.4962873171        7.3645021654
 C       -14.1432606786        6.9482388056        7.8582174798
 O       -14.8160894605        6.2052838900        7.2653949980
 C       -14.4881999390        7.6040928999        9.1669164859
 C       -11.5358868646        7.3016740164        8.3082245874
 C       -12.8759835780        9.0885777406        6.9945576879
 C       -13.1324551735        5.1126172058        0.6521305857
 C       -12.4886561800        2.6865632558        1.4817574128
 C        -9.3577527758        6.8064680357       -3.2797846522
 C       -10.9358458180        7.6417222134       -1.3877394752
 C       -12.5858378802        1.7472675900       -6.4522192602
 C       -12.3430096583        0.3053794741       -4.4518961895
 C        -5.8812329379        4.3693763620       -3.3971827689
 C        -5.0319945296        2.5520059570       -5.0164626536
 C        -9.0436618045       -1.4360587614        1.1897176930
 C        -6.6990813334       -1.0513356682        2.0634000442
 H        -6.0410763300       -3.9025287824        0.9769242308
 H        -7.0790404193       -4.5529660274       -0.1351376819
 H        -7.8012361278       -3.6686863202        1.1840738749
 H        -5.5233244617        0.1622445794       -0.3579369591
 H        -5.9552717417        1.4130389079        0.9536343011
 H        -5.1552260331        2.6939888603       -0.8233063880
 H        -6.8389201675        2.7630573978       -1.3542461416
 H        -7.1821835419        0.6201250932       -5.1662844939
 H        -7.8556623803        1.7153063270       -6.2150960761
 H        -9.4952267560        0.6247792314       -3.8897242807
 H        -8.9078334144       -0.4625891027       -5.1539077981
 H       -13.2356284524        3.4547452051       -3.3105669086
 H       -12.9452741575        4.1793583195       -4.9693346951
 H       -12.7823774125        5.6436992714       -2.9960359113
 H       -11.5404818264        5.7442425655       -4.3132342374
 H        -8.4860251074        7.5506783549        0.6593386416
 H        -7.9477649736        5.9862649918        0.9535973132
 H       -11.0070019064        6.7580497174        1.2170646459
 H        -9.8541645507        6.2507631335        2.6566876512
 H       -13.2723773179        6.6407750109        3.1492343809
 H       -11.7360418480        6.4300085580        3.8685787325
 H       -13.2252019158        4.8575517635        5.8033493854
 H       -14.2209990178        6.2151213574        5.2646465451
 H       -14.9320481395        8.5426366516        8.8798591133
 H       -13.7446353482        7.9196503100        9.9214192122
 H       -15.2223696853        7.1699655740        9.8051954382
 H       -11.4116324440        7.7339864605        9.2900551985
 H       -10.6041498965        7.5331089025        7.8156534048
 H       -11.5735279216        6.2860986637        8.5437561475
 H       -12.6953002544        9.6401437959        7.9233675972
 H       -14.0265688465        9.0509450799        6.7861613397
 H       -12.2397777027        9.3149799785        6.1274798140
 H       -13.2184422935        6.1832830470        0.7185819605
 H       -14.1876071272        4.8458662977        0.7932021975
 H       -12.7411452528        4.9922608423       -0.3860539756
 H       -12.2402417279        2.0754399504        2.4274320470
 H       -11.9116612902        2.1176095730        0.8122343044
 H       -13.5549396411        2.4891066710        1.4082273984
 H        -8.9172991119        7.7386129654       -3.2238242963
 H       -10.0304402161        6.9631852425       -4.1455808519
 H        -8.6420902286        6.1090520863       -3.6744838218
 H       -11.7268345808        7.9421445455       -2.0868217702
 H       -10.1858749470        8.4457272663       -1.4639126592
 H       -11.5781944582        7.4088880460       -0.5609567290
 H       -12.0427132622        2.2944598920       -7.2111758920
 H       -13.3889116166        2.4230758544       -6.2709268181
 H       -12.9979510262        0.8377820419       -6.9261190033
 H       -12.9552547790       -0.3490239924       -5.0883191497
 H       -13.0179871700        0.7287746148       -3.6542542035
 H       -11.7553629450       -0.3168256292       -3.8231458633
 H        -4.9548825280        4.9600825340       -3.4255111424
 H        -6.3157079780        4.4312211363       -2.3932382352
 H        -6.6031066975        4.9209097246       -3.9730152126
 H        -4.1584405925        2.1135359077       -4.8040690858
 H        -4.8689940987        3.4720836278       -5.5970308841
 H        -5.5401957205        1.8848277069       -5.6093270726
 H        -9.5355532244       -0.5569707586        1.6043200151
 H        -8.9671287774       -2.2743947112        1.8989491070
 H        -9.5753581981       -1.8973320608        0.3406827216
 H        -7.2035000710       -0.3372229476        2.6972337026
 H        -5.6910745252       -0.6087760633        1.9701705497
 H        -6.7173615703       -1.9918736417        2.5900776587
 Na       -9.3863625033        2.6998588901       -1.3443934410
