117

 C        -7.5741067277       -3.8175637141        0.2472947821
 C        -7.3839928910       -2.4124812558       -0.2128755273
 O        -7.1173409857       -2.0185854601       -1.3462211828
 C        -7.7207888002       -1.3001226917        0.8126501267
 C        -7.6179462708        0.1083762760        0.0200747877
 O        -8.5997442476        0.7602292274       -0.2210992683
 C        -6.2080933139        0.6216722390       -0.3595449186
 C        -6.0684356607        2.0788210709       -1.0150973922
 C        -5.6633883404        1.8486167022       -2.5568357871
 O        -5.1255392857        0.7732359815       -2.7743753525
 C        -6.0297819329        2.8183684872       -3.6967596280
 C        -7.5478442470        2.6631672286       -4.0903868987
 O        -8.2413242184        3.2915846374       -3.2963665382
 C        -8.1161124315        1.8108108777       -5.2008855480
 C        -9.1277298065        0.6606867032       -4.7420657239
 C       -10.4045284960        0.7147266399       -5.5574518364
 O       -10.3434827798        0.1016636388       -6.5815201338
 C       -11.7062538370        1.3107372496       -5.0593763402
 C       -11.6213077251        2.3908756867       -3.9598222026
 O       -10.7902869916        2.1567846015       -3.1353518765
 C       -12.5426984069        3.6040558057       -3.9093614229
 C       -11.6734689909        4.9142117545       -3.8350974134
 C       -11.0459882957        5.1657172877       -2.4329664535
 O       -11.2902533477        4.4349062756       -1.4689212283
 C       -10.0344968571        6.3735011454       -2.1359833591
 C        -9.0023963012        5.7820545695       -1.0106132061
 O        -8.0093580861        5.1955909205       -1.3526902753
 C        -8.9466780199        6.2492819475        0.5215742971
 C       -10.2304046780        6.0794988932        1.2469225786
 C       -10.7215017063        4.5860611990        1.1315055408
 O        -9.8496871095        3.7460359709        0.8864491393
 C       -12.2259582260        4.2603979169        1.4829309328
 C       -12.1415599707        4.6717663079        3.1835347698
 O       -11.7939797429        3.9693811901        4.0277523388
 C       -12.5880510611        6.0796401813        3.4656909425
 C       -13.1812698721        6.3003635955        4.8464919411
 C       -12.1096954853        6.8426912227        5.8652927668
 O       -10.9007849342        6.8860905862        5.5219617961
 C       -12.6964814574        7.5491083674        7.1405145855
 C       -14.0415377158        7.2546487965        7.6910829369
 O       -14.7424695705        6.4233095245        7.0517190547
 C       -14.7019063951        7.8991128134        8.9601258891
 C       -11.6443806605        7.2026949473        8.2625927403
 C       -12.6225301208        9.1501958570        6.9512971577
 C       -13.3631104571        5.1768666445        0.9165931710
 C       -12.2487703691        2.7373518951        1.2624668750
 C        -9.1424977791        6.8962835761       -3.2862419789
 C       -10.8763645404        7.5692680182       -1.5810645383
 C       -12.3998598823        1.7605358190       -6.3431971468
 C       -12.5614303052        0.0583155234       -4.5487458274
 C        -5.6854252716        4.2850422121       -3.1608713374
 C        -5.1085250639        2.6164395460       -4.9860880673
 C        -9.2084294395       -1.4478099432        1.3384780176
 C        -6.6642945791       -1.3330437356        1.9378662684
 H        -6.7114931362       -4.0323870209        0.8942474516
 H        -7.3391933142       -4.6225533653       -0.5357629736
 H        -8.5028385051       -3.9536935730        0.7716607515
 H        -5.6899431207       -0.1119985474       -0.9331575742
 H        -5.7676299780        0.7016530817        0.5945792690
 H        -5.1894726168        2.4642390036       -0.4756432325
 H        -6.9227887242        2.6797043523       -0.6857408887
 H        -7.4215809099        1.4118566053       -5.8456751090
 H        -8.6944219096        2.5113430187       -5.9112687649
 H        -9.1420639905        0.6819604363       -3.6511707689
 H        -8.6587162745       -0.3349362298       -5.0428199999
 H       -13.1132159561        3.5524274104       -3.0027141898
 H       -13.1568436738        3.6676936048       -4.7778311666
 H       -12.2306482343        5.8895248484       -4.0783809960
 H       -10.8376965105        4.7988200208       -4.4635935357
 H        -8.7268653056        7.3275551328        0.4641061973
 H        -8.1255209102        5.8219344249        1.1111315400
 H       -11.0121654083        6.6567629073        0.7611920864
 H        -9.9151105371        6.3671132915        2.2089896341
 H       -13.3913693890        6.2665538827        2.7866960388
 H       -11.9051157725        6.9495147698        3.1978163067
 H       -13.5796628203        5.3421503399        5.0385417724
 H       -14.0761152513        6.7938577780        4.7733682205
 H       -15.2548804599        8.8265179818        8.8201230970
 H       -13.9532142424        8.1494016791        9.6663557243
 H       -15.3726053579        7.3423671637        9.6159320514
 H       -11.6927682760        7.9389534619        9.0814335584
 H       -10.5661635325        7.1870043291        8.0015222992
 H       -11.8980438698        6.3308408051        8.9041450659
 H       -12.9465193759        9.5280943599        7.9025383525
 H       -13.2323668263        9.4564726360        6.1995688282
 H       -11.5920946122        9.2455876741        6.7233366345
 H       -13.0686441159        6.1498481336        0.4940708744
 H       -14.1475474886        5.3683412216        1.5957035465
 H       -13.8652348358        4.6524668531        0.0345972640
 H       -11.6944055954        2.1288786851        1.8499563014
 H       -11.8907770468        2.5060451628        0.2224326178
 H       -13.2427237442        2.2584812787        1.4532873807
 H        -9.1883442227        8.0401495990       -3.2669464689
 H        -9.3852317228        6.8378217640       -4.3129543413
 H        -8.1240138105        6.5573677900       -3.3469540522
 H       -11.2910608685        8.1270324738       -2.4049958267
 H       -10.2221980443        8.2769220811       -1.1535309373
 H       -11.7263676723        7.1732394716       -1.0217710438
 H       -12.2859180196        2.7679974574       -6.7814174811
 H       -13.4847095916        1.8259263938       -6.0885026189
 H       -12.4133120469        0.9198367790       -7.0016948619
 H       -12.4203728565       -0.7910808905       -5.1779121494
 H       -13.5523021485        0.2662710833       -4.3653826848
 H       -12.2795029035       -0.2860929963       -3.4488706086
 H        -4.6322946069        4.2944316675       -2.8276848518
 H        -6.2680833209        4.6313200899       -2.3162839775
 H        -5.7268961813        5.0700473930       -3.9954245367
 H        -4.4280558984        1.7380378386       -4.7401636879
 H        -4.5500193736        3.4939369693       -5.3297614385
 H        -5.7312444132        2.1290839326       -5.8309998234
 H        -9.4700218973       -0.4815313433        1.6465122929
 H        -9.2707681940       -2.1831208050        2.1059238504
 H        -9.9107174449       -1.8452175443        0.5571605263
 H        -6.6578788103       -0.4743706939        2.6617955470
 H        -5.6780245706       -1.2445180171        1.5567801201
 H        -6.7511975098       -2.3139971445        2.3472003975
 Na       -9.2383022367        3.0139892618       -1.2019388027
