117

 C        -7.7261536635       -3.8767758258        0.0494618232
 C        -7.6038821895       -2.4132346678       -0.3846126405
 O        -7.0798581475       -2.1058283990       -1.3830150113
 C        -7.8493585003       -1.2271827379        0.7668175259
 C        -7.6059005970        0.1338134656        0.0799837803
 O        -8.5644984205        0.8665268488       -0.1880996103
 C        -6.1396720845        0.4073859940       -0.3164106887
 C        -6.2518190777        1.8669297252       -1.0933595100
 C        -5.8051460932        1.6281820765       -2.4527717802
 O        -5.1109941044        0.7344650082       -2.8126776337
 C        -5.9372210701        2.9399503834       -3.6862759359
 C        -7.5089956525        2.8644125435       -4.0251458761
 O        -8.3776587900        3.2984608876       -3.2492134225
 C        -8.1675637019        2.0031345013       -5.1507311203
 C        -8.9011930247        0.8311161535       -4.5605748931
 C       -10.3254859109        0.6126061456       -5.2720070500
 O       -10.4315363633        0.0036802727       -6.3551166495
 C       -11.8709327029        1.2561356898       -4.9139904874
 C       -11.6496011294        2.2836733596       -3.7381667605
 O       -10.8681511018        1.9817889953       -2.8676686786
 C       -12.3752746354        3.6592862116       -3.8183607341
 C       -11.3739223964        4.7969433546       -3.9765073417
 C       -10.8509904330        5.0993920892       -2.5045388679
 O       -11.3811323569        4.4585375462       -1.6473371569
 C        -9.8986119968        6.3398574961       -2.2037483553
 C        -8.9438092282        5.9422208371       -1.2246772641
 O        -8.0997146420        5.1043570106       -1.4037947987
 C        -9.0078752661        6.4798499983        0.3457619132
 C       -10.2834684208        6.0354023176        1.1671887623
 C       -10.7263807113        4.5487928473        1.0862298426
 O        -9.9646987296        3.5852029244        1.0062993167
 C       -12.1401527428        4.2928516399        1.5744416204
 C       -12.2164077528        4.7386474808        3.0731390958
 O       -11.6973070548        4.0622131508        3.9155428694
 C       -12.6558927349        6.2828209940        3.4326045984
 C       -13.2234754837        6.6532183324        4.8466578019
 C       -12.0672848010        6.9537063246        5.8135906057
 O       -10.9178372142        6.7305141876        5.5357188303
 C       -12.5242515943        7.7261803851        7.2125398795
 C       -14.1058026362        7.2545468417        7.5588669389
 O       -14.8095675077        6.4847117299        7.0070391072
 C       -14.6598697659        7.9793834665        8.7432659355
 C       -11.6864749504        7.1480155210        8.4497736852
 C       -12.3613357666        9.2166869784        6.8445956759
 C       -13.2651266773        4.9460033174        0.8186984563
 C       -12.3048422687        2.7259525893        1.3177065693
 C        -9.0155163638        6.8895946303       -3.3988132986
 C       -10.9376737126        7.4945839509       -1.8119371696
 C       -12.4213166277        1.8850737184       -6.2911841864
 C       -12.6383814634       -0.0252756342       -4.5338556581
 C        -5.5923905833        4.2639860541       -3.0981143547
 C        -5.0122926729        2.4670601212       -4.8774192320
 C        -9.2076520856       -1.2354659328        1.5150656905
 C        -6.7811117464       -1.3703220722        1.9136121796
 H        -6.9973558460       -4.4102585955        0.7395889526
 H        -7.4935553067       -4.4324037901       -0.8771509530
 H        -8.7438587863       -4.0605307196        0.3004498456
 H        -6.0160502207       -0.3300673409       -1.0844582330
 H        -5.4325820721        0.3071068697        0.4432425349
 H        -5.5409841246        2.6246354664       -0.6759540015
 H        -7.2211215261        2.2334098855       -1.0429805203
 H        -7.5790948946        1.6653417284       -5.9571073329
 H        -8.9025045719        2.7026564803       -5.6801619406
 H        -8.9667844064        1.0101833133       -3.4609500194
 H        -8.2437761910        0.0182768327       -4.6498841698
 H       -12.9039153970        3.8771237413       -2.8879695745
 H       -13.0495020657        3.7496459386       -4.6821077475
 H       -11.9890386930        5.6921438676       -4.2781281312
 H       -10.5705873133        4.6332619527       -4.6914097880
 H        -8.8557956021        7.5609029607        0.4304490386
 H        -8.1417951986        6.0123938254        0.8909433140
 H       -11.1527102080        6.5884848351        0.9913774419
 H        -9.8668492700        6.0485929699        2.1551795954
 H       -13.2193308549        6.7785700259        2.5480338385
 H       -11.8008077990        6.7877394351        3.4108591000
 H       -13.7755782781        5.8486554010        5.1521992754
 H       -14.0448277193        7.3460269809        4.8378402152
 H       -15.2363876385        8.8350281820        8.4705476367
 H       -13.9586897110        8.3461093237        9.5392336870
 H       -15.3988185965        7.4637192132        9.3545283954
 H       -11.7683794168        7.6477951601        9.4573884145
 H       -10.5780360507        7.2473821093        8.1953213516
 H       -11.9310099720        6.1792646270        8.7799494679
 H       -13.1252024468        9.6814988567        7.3922799201
 H       -12.6682162910        9.2167056181        5.7827780427
 H       -11.3917857884        9.5162172463        6.8768046833
 H       -13.3586823049        5.9942937189        0.5358126107
 H       -14.1835022388        4.6828456534        1.3345719560
 H       -13.4481596544        4.2958158711       -0.1434741280
 H       -11.5781938759        1.9384126242        1.5940841555
 H       -12.2963264605        2.7351604459        0.2349293806
 H       -13.1412270371        2.1344856733        1.7054063037
 H        -8.8063104144        7.9368544834       -3.2874243573
 H        -9.4813635179        7.0395585467       -4.4088026525
 H        -8.1092291398        6.3543248459       -3.7043507562
 H       -10.9883422901        8.2685888977       -2.5568240769
 H       -10.4984013363        8.0722170764       -0.9599819765
 H       -11.9166070196        7.0284738995       -1.5833955622
 H       -12.3660974287        2.9750992294       -6.2595536423
 H       -13.5249595316        1.8403342399       -6.3284557573
 H       -12.1401275881        1.3426460247       -7.1769873135
 H       -12.1970346563       -0.8096298690       -5.1263762857
 H       -13.7196021584        0.0117552146       -4.5739901966
 H       -12.5261004483       -0.3630382145       -3.4847299221
 H        -4.6657931287        4.0840698586       -2.5693834032
 H        -6.2859852876        4.4512755246       -2.3147558489
 H        -5.4214618627        5.1943934575       -3.6578722718
 H        -4.6590661303        1.5033730476       -4.6048198940
 H        -4.1166709921        3.1872940709       -5.1704512850
 H        -5.6337957388        2.2006278296       -5.7843349095
 H        -9.2987496200       -0.3899867779        2.1052140924
 H        -9.2423110011       -2.1676559256        2.0643723510
 H       -10.0533226533       -1.3676433957        0.7614604603
 H        -6.5152620574       -0.3746249417        2.3587500983
 H        -5.7887584374       -1.6009097095        1.4556709921
 H        -6.9481643716       -2.1850893453        2.5490823288
 Na       -9.2157781999        2.9991284103       -1.0956026844
