117

 C        -8.0232841688       -3.8622507379       -0.1239349520
 C        -7.7100724959       -2.4173762547       -0.3922191083
 O        -7.1164366347       -2.1509202779       -1.4345338602
 C        -7.8659902986       -1.2204297198        0.8135590693
 C        -7.6740585472        0.1355276417        0.0761556150
 O        -8.6512111561        0.8985466173       -0.0754841737
 C        -6.3130116524        0.4590040918       -0.3567634622
 C        -6.2217160384        1.7884858822       -1.2365750551
 C        -5.6613389525        1.5761729842       -2.5692734348
 O        -5.1242070974        0.6099436864       -2.9991025830
 C        -5.9802840475        2.7085743651       -3.5772505124
 C        -7.5173702163        2.8471719213       -3.9154428434
 O        -8.2849008471        3.4407762740       -3.1729722025
 C        -8.1688507183        2.2078114530       -5.1663806506
 C        -9.0247844158        0.9760099434       -4.5171458323
 C       -10.2973982197        0.6316254388       -5.2498810367
 O       -10.2443023422       -0.2156546144       -6.1095317418
 C       -11.7747051487        1.1589438674       -4.8209948770
 C       -11.6204100791        2.1560833619       -3.6063266648
 O       -11.1106815431        1.8822443143       -2.4819625455
 C       -12.2278412072        3.5997951832       -3.8572614269
 C       -11.1179057856        4.6534934572       -4.0686121349
 C       -10.6954728210        5.1848877300       -2.6626566531
 O       -11.1580780106        4.6581965755       -1.6838458006
 C        -9.8974770666        6.4187801404       -2.3559628530
 C        -8.9475860707        5.9459019833       -1.1457923796
 O        -8.0935238955        5.1086638878       -1.3321875774
 C        -8.9856323847        6.6071344338        0.2491388802
 C       -10.2546353660        6.0802760895        1.0614349968
 C       -10.7162293437        4.5412277929        1.1742849149
 O        -9.9159784652        3.6603311355        0.9809860756
 C       -12.2624578281        4.1938857044        1.4757311529
 C       -12.2072647617        4.8956839417        3.1268690659
 O       -11.6714243947        4.1433273915        3.9668704498
 C       -12.5970936714        6.3597083943        3.2978471824
 C       -13.1295030076        6.7564019059        4.6950797681
 C       -12.1336553128        6.9158019051        5.7803548302
 O       -10.9575803852        6.6727358824        5.7031816798
 C       -12.5110661925        7.6555091086        7.1385209504
 C       -14.0731142940        7.3969036008        7.4894066468
 O       -14.6851084866        6.5485686068        6.9019864599
 C       -14.6254707102        8.2478769514        8.6205740441
 C       -11.7500919557        7.1898475858        8.3522811504
 C       -12.1925641372        9.1290694594        6.8882484446
 C       -13.2158289458        4.7855473380        0.4718385852
 C       -12.5817881535        2.7038814928        1.6954559298
 C        -9.0483472085        6.7880150235       -3.5831713641
 C       -11.0184673418        7.4682966177       -2.0894974619
 C       -12.3432860820        1.9125251878       -6.0203376963
 C       -12.7083723403       -0.0088572324       -4.4077162801
 C        -5.4828129719        4.1142144655       -3.0144480078
 C        -5.0691001306        2.4585364576       -4.7879963794
 C        -9.2644086848       -1.1352342671        1.5593245912
 C        -6.8386474867       -1.5213629845        1.8995016736
 H        -7.4192636445       -4.4043831118        0.5971572616
 H        -7.7625551658       -4.3875713496       -0.9777900131
 H        -9.1392825569       -3.9951168481        0.0479154540
 H        -5.8731291399       -0.3442076170       -0.9666776532
 H        -5.7297773396        0.6198596845        0.5944676729
 H        -5.6614549019        2.4903108217       -0.6403632628
 H        -7.2700637720        2.1862675309       -1.4349335319
 H        -7.3745628603        1.8318950447       -6.0212266959
 H        -8.7580513252        2.8928839763       -5.6601204284
 H        -9.1588586884        1.2143079180       -3.4791349810
 H        -8.3168787821        0.1826567759       -4.4742972384
 H       -12.7803824701        3.9224482080       -2.9285683746
 H       -12.9235499328        3.7114416113       -4.7158845886
 H       -11.4664528079        5.4366055667       -4.7114646892
 H       -10.1246972626        4.2499366691       -4.5098402478
 H        -9.2699015482        7.6430814132       -0.0594445201
 H        -8.0312411974        6.6672214967        0.7929354407
 H       -11.1086745392        6.4850242444        0.5561453675
 H       -10.0781040627        6.4073007464        2.1098698062
 H       -13.1882926597        6.6917494799        2.4497381271
 H       -11.7132966861        7.0346460005        3.2164480584
 H       -14.1461622118        6.2220788599        4.8968042384
 H       -13.6061198097        7.7826383639        4.5934184010
 H       -15.3138318269        9.0409303831        8.3090702690
 H       -14.0250529064        8.6367370046        9.4588624207
 H       -15.3899102062        7.6866246575        9.1747344914
 H       -12.0266493928        7.6962169690        9.2931793468
 H       -10.7423576456        7.4787126385        8.1805025818
 H       -11.7849896504        6.1831040329        8.7459205201
 H       -13.0543612330        9.6026087081        7.3045965380
 H       -12.1251941823        9.2442591445        5.7690892475
 H       -11.1490824460        9.3609174737        7.2281224090
 H       -13.4686003900        5.8451654284        0.7199816076
 H       -14.2589588123        4.2283461631        0.5097496075
 H       -12.9904457494        4.6760030124       -0.5135651673
 H       -11.7755397160        2.0768385353        2.2476384538
 H       -12.6640260667        2.2551245206        0.7219415808
 H       -13.4027248819        2.3516301149        2.2473403691
 H        -8.2648289650        7.4432776431       -3.5622169979
 H        -9.5092177479        7.1953324786       -4.4982389478
 H        -8.6776325399        5.8245438525       -3.9757966423
 H       -11.0836213022        8.3799816236       -2.7405259612
 H       -10.6706358769        7.9069085557       -1.1054946492
 H       -11.9436462545        6.9177335229       -1.8505256959
 H       -12.0242286173        2.8935088619       -5.9317486452
 H       -13.3941530605        2.0472123285       -6.1749928103
 H       -12.0367389605        1.4065076155       -6.9487167493
 H       -12.5010816629       -0.8597263937       -5.0907377476
 H       -13.8031460860        0.3576403695       -4.4267372952
 H       -12.6275923417       -0.4183976624       -3.5024459050
 H        -4.5412460624        3.9627266499       -2.5148424229
 H        -6.1733604084        4.5598205985       -2.2798875892
 H        -5.2949814162        4.8555786499       -3.7099768670
 H        -4.7324491557        1.4243279813       -4.8643624009
 H        -4.2451009201        3.0419877597       -4.4749902387
 H        -5.3660869105        2.8073793454       -5.7262929567
 H        -9.1669575318       -0.4334697496        2.5035964110
 H        -9.6592067472       -2.1349748984        1.7903420923
 H        -9.9177736680       -0.7245903020        0.8842765002
 H        -6.4605952519       -0.6191792916        2.2272038164
 H        -5.8906837985       -1.9407915222        1.4174313609
 H        -7.0808881766       -2.2971665672        2.6644469580
 Na       -9.3209639062        2.8790629053       -1.0098378122
