117

 C        -8.7214184641       -3.6019022694       -0.1888315007
 C        -8.0011416258       -2.2621649519       -0.3969142477
 O        -7.3873242541       -2.1334745753       -1.3758529990
 C        -8.0355143389       -1.2385621784        0.8151466950
 C        -7.8001165409        0.0836032420        0.2042251268
 O        -8.7230668382        0.8366931758       -0.0204809931
 C        -6.3043071134        0.4388919269       -0.3008805688
 C        -6.1535803560        1.6603216011       -1.1860284658
 C        -5.7502509958        1.4205979805       -2.7045609116
 O        -5.2704239420        0.4170614008       -3.0454571404
 C        -5.8022687453        2.7924589996       -3.7992457827
 C        -7.3404854709        2.8846466238       -3.9698556075
 O        -7.9593292064        3.4740052871       -3.0838583041
 C        -8.1895860791        2.0749957654       -5.0418222985
 C        -8.8571509353        1.0442157581       -4.2518572560
 C       -10.2074680472        0.4312809447       -4.9338165822
 O       -10.2065724956       -0.5065161414       -5.7405620556
 C       -11.6952369676        1.1156143025       -4.7086047935
 C       -11.7619439626        2.0457138365       -3.4258139495
 O       -11.5251954500        1.6143474275       -2.3335534774
 C       -12.0843432627        3.5194524895       -3.6519924661
 C       -10.8311332218        4.4061166806       -3.9175348827
 C       -10.4540704223        5.0937140080       -2.6356645620
 O       -10.8109070814        4.5737309086       -1.5736960128
 C        -9.6962020570        6.4311035789       -2.5424539303
 C        -8.9512157199        6.1605848262       -1.2173516128
 O        -8.0573493818        5.3861208626       -1.3384008671
 C        -9.3667755631        6.7015279331        0.1703600230
 C       -10.5648461588        6.0839058655        0.8042291230
 C       -10.7482926772        4.5825223841        1.0974784024
 O        -9.8187909460        3.8155951302        0.9809858680
 C       -12.0909899377        4.3183954328        1.7501931365
 C       -12.1678095645        5.1556998863        3.0451539648
 O       -11.9238158156        4.5015694108        4.0079576766
 C       -12.5727334588        6.6989954326        3.2141621665
 C       -13.0413817187        7.0359675973        4.6249720152
 C       -11.9710434054        7.0060313447        5.7027163528
 O       -10.9862428147        6.2932073084        5.6661868737
 C       -12.3477350566        7.6872767558        7.0146251262
 C       -14.0737518161        7.6276886732        7.3324859398
 O       -14.7729863246        6.7329073863        6.9540604264
 C       -14.6881006876        8.6095421035        8.2590508204
 C       -11.7291709570        7.0034791786        8.2240909973
 C       -12.1364203009        9.2568660479        6.8747547575
 C       -13.2183761526        4.7727152680        0.6717442960
 C       -12.4346734173        2.8504411803        2.0080376282
 C        -8.8281110147        6.7932215821       -3.7933378760
 C       -10.6475490030        7.7511837166       -2.4350851186
 C       -12.0642266888        1.6713327618       -6.1407726279
 C       -12.6361497926       -0.0485239066       -4.2063036114
 C        -5.3138800000        3.8742832708       -2.9311344953
 C        -5.1005548817        2.6262130486       -5.1433000817
 C        -9.4048848796       -1.4915111799        1.5278537664
 C        -6.8322920437       -1.7532440044        1.7178408748
 H        -8.3370416403       -4.0134350868        0.7629874087
 H        -8.3656740934       -4.4113052098       -0.8816614251
 H        -9.7635027010       -3.5989500250       -0.2367104223
 H        -5.7944310476       -0.3346671782       -0.9343135669
 H        -5.6650914896        0.6765743281        0.5502830697
 H        -5.3194451252        2.1613248252       -0.6465201479
 H        -7.0167919806        2.2471885082       -1.2107935492
 H        -7.6222401514        1.7295681549       -5.7977321372
 H        -8.9735638686        2.7699381004       -5.5082506029
 H        -9.0457125776        1.4845392134       -3.2628749543
 H        -8.0247991399        0.3714112027       -3.9656935106
 H       -12.6825753258        3.8530596180       -2.8169644062
 H       -12.7368864478        3.5979788271       -4.5269370894
 H       -10.9713568267        5.2163497669       -4.7024694006
 H       -10.0246260837        3.8393663859       -4.2934219494
 H        -9.4850570239        7.7753610937        0.1580152660
 H        -8.4615343303        6.4632798331        0.7933744094
 H       -11.4037205496        6.2872663999        0.0703725039
 H       -10.7775015884        6.5093078310        1.8009889791
 H       -13.3376038958        6.9730563533        2.4082248991
 H       -11.8677224400        7.4589824442        3.0883608794
 H       -13.6665874871        6.2595806874        4.9318790338
 H       -13.7821363205        7.8285715599        4.5378733095
 H       -15.3327453914        9.2814991547        7.7285519165
 H       -14.0354956483        9.1822864418        8.9091391644
 H       -15.4654440852        8.1927258428        8.8852697212
 H       -11.8580787805        7.4846346136        9.1779902827
 H       -10.6688659265        6.7179013528        8.0547211893
 H       -12.1704724686        6.0632560812        8.4195643331
 H       -12.7065278098        9.8124495353        7.6746380587
 H       -12.2508279928        9.6030501782        5.8505080389
 H       -11.0843890495        9.1948155278        6.9569793552
 H       -13.8409444415        5.5250994097        1.0756242180
 H       -13.7276419853        3.9822503119        0.2722880583
 H       -12.7905248442        5.0706466570       -0.3887137601
 H       -11.9440436168        2.4810109254        2.8764335105
 H       -12.4186337274        2.0451937641        1.3059323341
 H       -13.5128830419        2.7772349240        2.3373185470
 H        -7.8350583645        7.2995816882       -3.6049422971
 H        -9.2596430331        7.3855026349       -4.5896661247
 H        -8.4509138490        5.9785047361       -4.3814473633
 H       -10.8823219974        7.9786693160       -3.4532360506
 H       -10.4094243377        8.6425881481       -1.8549837290
 H       -11.5496062466        7.3407603235       -1.9145701938
 H       -11.1628275837        2.0087620818       -6.7314195266
 H       -12.7164399892        2.5533407037       -6.1118336384
 H       -12.5836588933        0.9188721181       -6.6748653896
 H       -12.9142302348       -0.8466015794       -4.8834974961
 H       -13.4891888359        0.3904976664       -3.7356867615
 H       -12.0990993316       -0.6515666497       -3.3906737156
 H        -4.2614325201        3.7587482305       -2.6557190508
 H        -5.9220934303        4.1369238171       -2.1005975944
 H        -5.2789488746        4.8697801206       -3.5177536772
 H        -5.7947845546        2.2079709767       -5.8094862230
 H        -4.1665174843        1.9263769501       -5.2108559197
 H        -4.7173741652        3.6376013980       -5.4237905738
 H        -9.2868352632       -1.1341827529        2.4718290929
 H        -9.6450577208       -2.5509332990        1.6761140129
 H       -10.2322725433       -0.9182122076        0.9451738280
 H        -6.6410750605       -1.0636631492        2.6182653412
 H        -5.9259727876       -1.8019270738        1.1815277293
 H        -6.9966598231       -2.7478312806        2.0176859291
 Na       -9.6571141063        2.6470823933       -1.0626456661
