117

 C        -9.0347486521       -3.6527898394       -0.3233851674
 C        -8.1037021585       -2.3765485934       -0.4843796459
 O        -7.4918099716       -2.1212795328       -1.4951004326
 C        -8.1087671134       -1.3885168669        0.8283066135
 C        -7.8049521597        0.1053348120        0.1557579484
 O        -8.7105737344        0.9064965822       -0.0898835916
 C        -6.3817631325        0.3627291978       -0.3019058079
 C        -6.1622787956        1.7004475132       -1.1749165080
 C        -5.7249543104        1.4196353054       -2.7226792547
 O        -5.3929599218        0.3590811749       -3.2076268355
 C        -5.8104706857        2.7352942437       -3.7569935153
 C        -7.3935067247        2.8137412572       -3.9199787161
 O        -8.0277053834        3.4246264261       -3.0609074719
 C        -8.2037710631        1.9531206202       -4.8705235758
 C        -8.9411352154        0.8016001833       -4.0821751798
 C       -10.2426157036        0.4169418811       -4.7311236089
 O       -10.0864393332       -0.5573221914       -5.4588973467
 C       -11.6991056609        0.9650810292       -4.6037002725
 C       -11.6924173706        2.0214530911       -3.5228922699
 O       -11.5519855878        1.5321729153       -2.4174977128
 C       -12.0957684023        3.5386915067       -3.7094416976
 C       -10.8987852076        4.4521960329       -3.9438937503
 C       -10.4892039654        5.2233504169       -2.6294808713
 O       -10.6774661528        4.6475671707       -1.5830703145
 C        -9.7129088786        6.4761583209       -2.6109417205
 C        -8.7307158684        6.2125043802       -1.2286025992
 O        -7.7519224452        5.5395693538       -1.3327577222
 C        -9.2819677378        6.8637811731        0.0431215884
 C       -10.5705551377        6.2648759726        0.5875371018
 C       -10.7269335494        4.7008128562        1.1423219698
 O        -9.8248364870        3.8477350186        0.9829510613
 C       -12.1788324349        4.4148400228        1.7604163226
 C       -12.3019624926        5.3001443603        3.1825494106
 O       -12.0552706017        4.7214822052        4.2568631711
 C       -12.6283197075        6.8023839040        3.2461009018
 C       -13.1127838620        7.0755348002        4.6273021554
 C       -12.1100111549        6.8575666936        5.6881639128
 O       -11.0275571888        6.3319589158        5.5867852285
 C       -12.4772195146        7.7379447900        7.0762086540
 C       -14.0398347691        7.6616730179        7.2838875103
 O       -14.6449327773        6.7581493935        6.8617361383
 C       -14.6574424961        8.8242158168        8.1304430800
 C       -11.7959581057        7.0550583643        8.1953580464
 C       -11.9795090229        9.2301935760        6.9183218472
 C       -13.4548891891        4.7801318799        0.8293116990
 C       -12.1836707808        2.8549793254        1.9357526805
 C        -8.6559792658        6.6339826481       -3.6474787469
 C       -10.5786859317        7.7962007136       -2.5185433534
 C       -12.0063840926        1.4649557147       -6.0241808690
 C       -12.5495271812       -0.1951911673       -4.2617613948
 C        -5.0950466631        3.9149518845       -3.0641270178
 C        -4.9743645183        2.5039893780       -5.0464447880
 C        -9.3680056109       -1.4355611962        1.6823582188
 C        -6.8908620533       -1.8216478961        1.7158691600
 H        -9.1390783953       -4.1593814912        0.7049062995
 H        -8.8585498553       -4.4789047515       -0.9582822026
 H        -9.9878894276       -3.2516743175       -0.6942525775
 H        -6.2008415947       -0.4185482885       -1.0347903403
 H        -5.6854686656        0.3017669870        0.4695345371
 H        -5.3458925236        2.2574338697       -0.7127002252
 H        -7.0470063821        2.2745574797       -1.2406224304
 H        -7.4489845153        1.5740723616       -5.7479283027
 H        -8.9636288545        2.5648250083       -5.3445572535
 H        -8.9786370252        0.9582281218       -2.9748062665
 H        -8.2655904162       -0.0313488690       -4.1380001756
 H       -12.5838164214        3.7346797188       -2.7790342047
 H       -12.8963727533        3.6752909508       -4.4301967376
 H       -10.9328920591        5.1767744998       -4.7682609316
 H       -10.1146645238        3.7844163054       -4.2894845517
 H        -9.4302093318        7.9344997192       -0.1251911560
 H        -8.4255288492        6.7595276967        0.7458803493
 H       -11.2647141605        6.2408243427       -0.2163198631
 H       -11.0402547543        6.8392454102        1.4312138197
 H       -13.3301977926        7.2024460099        2.4221414619
 H       -11.8080447046        7.4322569004        3.2100423707
 H       -13.9775987907        6.5718041422        4.8382700631
 H       -13.4423811747        8.0536745460        4.6506442721
 H       -15.0441536710        9.5670449169        7.4794975951
 H       -13.8968689281        9.3349020695        8.7531228917
 H       -15.5590948651        8.7072479138        8.7045204558
 H       -11.6834816952        7.5184101787        9.2098579659
 H       -10.8091051042        6.7563455788        7.7558776339
 H       -12.1667784230        6.0654757500        8.4210198483
 H       -12.0853974562        9.7735484701        7.8146149825
 H       -12.6035831013        9.6367786941        6.1129333040
 H       -11.0211530859        9.1397859195        6.5213266367
 H       -14.1097350143        5.4560621552        1.3661367562
 H       -13.9125971935        3.8436363944        0.4688429641
 H       -13.2653309331        5.1330413485       -0.1328043333
 H       -11.4622304471        2.7469376978        2.8567093679
 H       -11.9226735935        2.1498937083        1.1988956732
 H       -13.0674122719        2.3485798175        2.2346489652
 H        -7.8888011281        7.3119741803       -3.3894538024
 H        -8.8831686185        6.8625641258       -4.7524404480
 H        -7.9807184395        5.7529234661       -3.7845728583
 H       -11.2180834103        7.7180553981       -3.3829455286
 H       -10.0310520411        8.7514455557       -2.4725363340
 H       -11.1091728976        7.8305949555       -1.5955545404
 H       -11.0424606173        1.8415738279       -6.4648977471
 H       -12.6398216082        2.3836587142       -5.9480972653
 H       -12.4681182340        0.7395691286       -6.7557756331
 H       -12.5373957442       -0.9325895699       -5.0861491712
 H       -13.6157434256        0.0750978219       -3.9819694287
 H       -12.1479981789       -0.7426767361       -3.5575293286
 H        -4.0348254728        3.6201875628       -2.8889697132
 H        -5.5144938310        4.3582639445       -2.1240279508
 H        -4.9701519645        4.7890346765       -3.7056960651
 H        -5.6770171213        2.4726149491       -5.9434504869
 H        -4.2038431022        1.6984666365       -5.2870978098
 H        -4.4261889269        3.4943465015       -4.9914132703
 H        -9.3344531159       -0.6077009879        2.4390707648
 H        -9.3916755417       -2.3346999811        2.2814825646
 H       -10.1864853726       -1.3340195309        1.0400536765
 H        -6.9666415379       -1.3387347740        2.6801705828
 H        -5.9060672391       -1.5731437011        1.2681405824
 H        -6.8228399685       -2.8740928973        1.8970511852
 Na       -9.7779195481        2.5412646367       -1.1426117189
