117

 C        -9.5767450461       -3.3949543885       -0.5011830781
 C        -8.4388361278       -2.4580974496       -0.5779961948
 O        -7.7988268280       -2.2431285416       -1.5673114822
 C        -8.1413580787       -1.4438948112        0.7228981374
 C        -7.8263672890       -0.0567167439        0.0364212862
 O        -8.6958126767        0.7387917733       -0.1541225474
 C        -6.4588462032        0.1444448123       -0.5869879665
 C        -6.1430299662        1.5781823947       -1.1748757649
 C        -5.7958103499        1.3277972972       -2.6255984352
 O        -5.7144697313        0.2681410181       -3.1303658979
 C        -5.8322583822        2.6122499429       -3.6389637949
 C        -7.3807632674        2.6488824282       -3.6572222846
 O        -7.8770925825        3.4029319180       -2.8459748863
 C        -8.0616407409        1.4912463710       -4.5065583800
 C        -9.0084205498        0.5714470170       -3.7571608265
 C       -10.1629521508       -0.0129173879       -4.6854063966
 O        -9.8397743878       -1.0769461948       -5.2387052150
 C       -11.5067043838        0.7800580294       -4.6084410798
 C       -11.5465480807        1.9465008114       -3.5440758426
 O       -11.4816138607        1.6189024681       -2.3668940336
 C       -12.0074909667        3.4207484146       -3.8794069999
 C       -11.0115839993        4.5950054938       -4.0605754267
 C       -10.3119521988        4.9995307106       -2.7472324360
 O       -10.8090756480        4.7075140139       -1.6571526956
 C        -9.3522689864        6.2751864206       -2.7420922174
 C        -8.5200571298        6.3508229159       -1.2660348917
 O        -7.3383367267        6.1791576662       -1.2550996996
 C        -9.1546854677        6.8010099665        0.2147353475
 C       -10.7604161156        6.7004289112        0.5642469667
 C       -10.8370775398        5.1813619874        1.0830622835
 O        -9.9111766465        4.5080211710        0.7515525858
 C       -12.0955164679        4.5885179936        1.7946092292
 C       -12.3461827108        5.2179742866        3.2973319363
 O       -12.5556765937        4.4208637414        4.1584715482
 C       -12.5556060655        6.7503835731        3.2910592385
 C       -13.1783590035        7.3320524243        4.6474803247
 C       -12.1530161194        7.1525207156        5.7212493754
 O       -11.0664212643        6.6753146361        5.3411665050
 C       -12.5572231007        7.9050585002        7.1418128074
 C       -14.0464389414        7.8820088842        7.4273315473
 O       -14.7041487959        6.8989158022        7.0293468294
 C       -14.7047659688        9.1752933841        7.8403779638
 C       -11.8198798863        7.0747365462        8.3028114133
 C       -11.6871553133        9.2242313958        6.9622978180
 C       -13.5259113421        4.7101654028        1.0693333092
 C       -11.7772365414        3.1232351245        2.2114049172
 C        -8.3650854807        6.3261574405       -3.8449462359
 C       -10.1835719817        7.6318711636       -2.7571110860
 C       -11.8906768694        1.3176622924       -5.9520892959
 C       -12.5704806523       -0.3292109282       -4.3069336064
 C        -5.2972714944        3.8961132586       -3.0728405985
 C        -5.1857950289        2.1768776549       -5.0100048093
 C        -9.3608948207       -1.0838988909        1.5751127195
 C        -6.8548584655       -1.9492569960        1.4310286889
 H        -9.8077197757       -3.6799223465        0.4939751374
 H        -9.2392065722       -4.3388333322       -1.0676997679
 H       -10.4326905910       -3.1398718293       -1.0935764635
 H        -6.3719994034       -0.6181060117       -1.3602100392
 H        -5.6371699522       -0.0692437333        0.1562391222
 H        -5.2391834821        2.0508406836       -0.7157479087
 H        -7.1039223635        2.1538475557       -0.9931062166
 H        -7.3455382846        0.9342495959       -4.8264538066
 H        -8.5951735970        1.8932063078       -5.3940721990
 H        -9.3472660963        0.8742603343       -2.7934011811
 H        -8.3526958902       -0.3210093827       -3.5291742820
 H       -12.7523713295        3.6890164780       -3.0790063086
 H       -12.7267128246        3.3455019867       -4.7232667371
 H       -11.4823591537        5.5399069744       -4.4159863160
 H       -10.2598866810        4.4913378257       -4.8660654683
 H        -8.8025341816        7.7762912173        0.5676645147
 H        -8.5663704894        6.0837782263        0.7794857248
 H       -11.4753539255        6.6663026800       -0.3281372312
 H       -11.1831504751        7.5454366053        1.1374938262
 H       -13.2633221635        6.8626297772        2.5032280405
 H       -11.6352190751        7.3838897046        2.9992271103
 H       -14.1807633179        6.7835014149        4.6664913439
 H       -13.5396437797        8.4659930776        4.6597124769
 H       -14.4906554837       10.1015398167        7.2354109580
 H       -14.3924905344        9.4573123602        8.8401987345
 H       -15.7950433534        9.2074791063        7.7771524835
 H       -11.9797176087        7.6049849161        9.2402084157
 H       -10.7603537850        6.8272630876        8.2249890550
 H       -12.2399867266        6.0612022544        8.5099017803
 H       -11.1831734939        9.2712435627        8.0073499083
 H       -12.2911975187       10.1109269723        6.8271613254
 H       -10.8744598119        9.0395875612        6.1803960036
 H       -14.2522266865        4.9237837105        1.8173777475
 H       -13.7849030834        3.9952434749        0.3550325807
 H       -13.5644524779        5.7261801424        0.4098235480
 H       -10.8500238327        2.9206121445        2.5682842822
 H       -11.9542893706        2.5268444402        1.3001865440
 H       -12.5476735911        2.5265582257        2.7034438245
 H        -8.2711638541        7.3146911345       -4.3695490013
 H        -8.6992796964        5.6878846198       -4.5785918455
 H        -7.3259500464        6.2397755625       -3.8151314893
 H       -11.2762584171        7.5001486403       -2.8377002117
 H        -9.7667725661        8.1833124505       -3.5779201387
 H        -9.8340153385        8.4288934763       -2.0797989768
 H       -11.4664193777        2.3240575303       -6.1463178774
 H       -12.9759885226        1.2651748382       -6.1441562962
 H       -11.3377444033        0.7447921736       -6.6699063654
 H       -12.2435975763       -1.3391519984       -4.5595950173
 H       -13.4947384437       -0.1973058699       -4.8065393723
 H       -12.6633262740       -0.4571881668       -3.1344961586
 H        -4.2934962978        3.8218768739       -2.7271254911
 H        -5.8432212967        4.2287213713       -2.2439420571
 H        -5.2816592102        4.7213827514       -3.8076226465
 H        -5.5648920185        2.5619877428       -5.8792335713
 H        -5.5118143454        1.1677945376       -5.1274516734
 H        -4.1385482305        2.1092052829       -4.9244988048
 H        -9.4081841006       -0.0901976205        1.8759087851
 H        -9.2385750810       -1.6456068610        2.5053854831
 H       -10.3687113672       -1.3168419392        1.0232173711
 H        -6.5495429796       -1.3397304016        2.3320905013
 H        -6.0670000525       -2.2226133889        0.7753459909
 H        -7.1446637968       -2.8889736527        1.9669639150
 Na       -9.8313698895        2.5834264431       -1.0846952099
