117

 C        -9.8008585942       -3.2742996328       -0.4230357591
 C        -8.5479892577       -2.3256823747       -0.6451814926
 O        -7.8980889655       -2.3392757154       -1.6232802333
 C        -8.2213491736       -1.3738539890        0.6436663220
 C        -7.8550777484       -0.0590849978       -0.0321716080
 O        -8.6736583157        0.8085630804       -0.3086731018
 C        -6.4116125447        0.0881864761       -0.5141502834
 C        -6.0415984987        1.4150132578       -1.0464014745
 C        -5.8161277356        1.2392806927       -2.5292219903
 O        -5.7658398320        0.1345638847       -3.0388259782
 C        -5.9205062005        2.4578581529       -3.6080027830
 C        -7.4416288947        2.4598534034       -3.6395652572
 O        -8.0606123565        3.1937453096       -2.8387515283
 C        -8.1395587667        1.4140132484       -4.4038058449
 C        -8.8594135264        0.4812182752       -3.5566568799
 C       -10.0607917834       -0.1004707209       -4.4535166532
 O        -9.9465103056       -1.0611379000       -5.1677988457
 C       -11.5065468497        0.7316608028       -4.6684665911
 C       -11.5567045361        1.8555870270       -3.6012221160
 O       -11.4400672815        1.6006131908       -2.4317446208
 C       -11.9289916122        3.3139822627       -3.9440232039
 C       -10.9341622427        4.5400156534       -4.0963674250
 C       -10.3780299774        5.1226512780       -2.7360067747
 O       -10.8696216367        4.6610996298       -1.7255464253
 C        -9.2494820696        6.2353346026       -2.7737832204
 C        -8.4936679236        6.3587016795       -1.2117269583
 O        -7.3255610514        6.4817620376       -1.2543784977
 C        -9.1553189318        6.8979232901        0.0579496118
 C       -10.6210221415        6.7023005945        0.4534645635
 C       -10.8929891313        5.2344104419        0.9798501460
 O        -9.9511170439        4.4825260740        0.6561796613
 C       -12.0377981468        4.6331962785        1.8480958320
 C       -12.5230864425        5.2764822236        3.2622079209
 O       -12.7786825469        4.5550352367        4.2460022119
 C       -12.6517530602        6.7502646305        3.3626820919
 C       -13.1790405080        7.2618411518        4.6824736930
 C       -12.0626984513        7.2521703842        5.6516603977
 O       -10.9496756343        6.7455713166        5.4303973055
 C       -12.3647024370        7.9704820202        7.0572417351
 C       -14.0637673728        8.0563563168        7.2365611464
 O       -14.7026410911        7.0888790197        7.2858083730
 C       -14.7712254022        9.3594030838        7.7843326745
 C       -11.8788484347        6.9909087666        8.1837128079
 C       -11.6946184457        9.3633592605        7.1827522707
 C       -13.3232946722        4.6937526669        1.0851875279
 C       -11.6709053970        3.1512103836        2.0472708364
 C        -8.1962319823        6.0751991879       -3.8996295784
 C       -10.1100204271        7.4969455839       -2.8633995721
 C       -11.6678553134        1.2177073131       -6.1655817302
 C       -12.5752757037       -0.2709903950       -4.1311278840
 C        -5.3393750512        3.8147275733       -3.1197204592
 C        -5.2081489764        2.2735612458       -5.0158609820
 C        -9.4212214074       -1.2000704816        1.5604025332
 C        -6.9716521094       -2.0745671730        1.2751464164
 H       -10.0027655218       -3.3264381647        0.6857618031
 H        -9.7430895174       -4.2896246435       -0.8265285435
 H       -10.6320827654       -2.9336502555       -0.9660603487
 H        -6.3451429511       -0.6733160468       -1.3911748541
 H        -5.6041158687       -0.2344932543        0.1707277461
 H        -5.1292350441        1.9495868799       -0.5933176152
 H        -6.9588954762        1.9356198581       -0.8820282093
 H        -7.3333148780        0.9054434154       -5.1067208377
 H        -8.8740186692        1.9090480336       -5.0145795355
 H        -9.3660318908        1.0519982045       -2.7629714828
 H        -8.2717402490       -0.3102341983       -3.0507350307
 H       -12.7027453130        3.6230992207       -3.2373532685
 H       -12.5731305935        3.2636728933       -4.8526565172
 H       -11.4893510924        5.3448584674       -4.7003211874
 H       -10.0864078242        4.4432647970       -4.7110612514
 H        -9.1476812340        7.9754459760       -0.0246659445
 H        -8.4224152542        6.6670441192        0.8570490522
 H       -11.4341954560        6.9900805079       -0.2976546731
 H       -10.7700332738        7.5164103363        1.2085297808
 H       -13.1362442551        7.2915413511        2.4524301429
 H       -11.6837555756        7.0426779412        3.3913019437
 H       -14.1226943239        6.7685198503        4.8934340312
 H       -13.5097474234        8.3796321636        4.6202785140
 H       -14.5188667440       10.3597036663        7.4371406357
 H       -14.5647673883        9.4119566266        8.8856602679
 H       -15.8238366404        9.3301579705        7.5783369646
 H       -12.2186895789        7.5448166689        9.0525757296
 H       -10.8908125281        6.5904236241        8.4123653480
 H       -12.4628297317        6.1327637873        8.1643493225
 H       -11.4362251546        9.6320856023        8.2358141896
 H       -12.5838941295       10.0448461718        6.8367581777
 H       -10.8112497417        9.4019759289        6.4902670083
 H       -14.1998274742        4.1971949637        1.5272037836
 H       -13.0838955576        4.3274713457        0.0736366312
 H       -13.6502533348        5.7509300609        0.8467399613
 H       -10.6074151142        2.8646687143        2.3672588227
 H       -11.8736279254        2.6034717269        1.1838771208
 H       -12.3815019044        2.5744559584        2.6074493249
 H        -8.1341975527        6.9395857269       -4.5000060133
 H        -8.3046294799        5.2165373330       -4.5673760934
 H        -7.1861155463        6.1742695207       -3.6598958933
 H       -11.0265375081        7.3104224999       -2.3069722380
 H       -10.2562829992        7.8244162906       -3.9128776633
 H        -9.5820742371        8.4385600049       -2.6049385734
 H       -11.1745455040        2.1849552599       -6.2420498678
 H       -12.6866601615        1.2307356240       -6.4676869343
 H       -11.0168601239        0.7102188468       -6.8237599117
 H       -12.3849140358       -1.3700635700       -4.3664238969
 H       -13.5648623010       -0.1114033812       -4.6493979586
 H       -12.6080832487       -0.2434529577       -3.1325044500
 H        -4.3375973755        3.7628678531       -2.7465741421
 H        -5.8167146603        4.1670670699       -2.2326965924
 H        -5.3453846121        4.6424005463       -3.8459787574
 H        -5.3801838447        3.1339196254       -5.5877295730
 H        -5.6778465794        1.5807540887       -5.6517176267
 H        -4.1811809710        2.0531189936       -4.9468123133
 H        -9.3338190961       -0.2959756016        2.1526567811
 H        -9.2982213948       -1.9962418166        2.3359560466
 H       -10.4209397229       -1.1268476423        1.0708620002
 H        -6.2303885950       -1.4656191122        1.8756130495
 H        -6.4841687444       -2.6776231301        0.5205329173
 H        -7.3247151005       -2.7129531256        2.0475662441
 Na       -9.7059144915        2.7613111036       -0.8872487441
