117

 C        -9.9976864383       -3.2262580176       -0.4423336666
 C        -8.7779171678       -2.2461777385       -0.6316068304
 O        -8.0536245438       -2.4551861535       -1.6224251315
 C        -8.2837240225       -1.4035771279        0.5533973784
 C        -7.8091565312       -0.0584269739       -0.1075923645
 O        -8.6674528217        0.8305723393       -0.3300244623
 C        -6.3266895532        0.1395088437       -0.3572246251
 C        -5.8653756155        1.3546298123       -1.1256212571
 C        -5.6915815632        1.1719786223       -2.6819488237
 O        -5.6906190083       -0.0028851161       -3.0759625652
 C        -5.9624833528        2.4548971509       -3.5721066159
 C        -7.5187834449        2.4245427240       -3.6106645499
 O        -8.2648203862        2.9882464434       -2.8098447194
 C        -8.2945184538        1.4069844903       -4.4634816485
 C        -9.0034483354        0.2932913092       -3.5205414268
 C       -10.1155719307       -0.1624406966       -4.3308992509
 O       -10.0032311693       -1.0860557212       -5.0637119843
 C       -11.3934238147        0.7742135548       -4.5653330536
 C       -11.4616983359        1.9692332984       -3.5936293045
 O       -11.2563526481        1.6456777741       -2.4363837088
 C       -11.9794383153        3.4481791100       -4.0377457960
 C       -10.7697732417        4.3378777377       -4.1852254677
 C       -10.3036412755        4.9718241500       -2.7776496650
 O       -10.9740227475        4.6935795429       -1.8131299278
 C        -9.2867682720        6.1759542008       -2.7060835391
 C        -8.5093267294        6.5781241779       -1.3706633957
 O        -7.2731775340        6.5531419529       -1.3567202508
 C        -9.2929577084        7.1817663660       -0.1575724817
 C       -10.6083339858        6.6395332730        0.4611965403
 C       -10.7087995208        5.2155308941        1.0488116505
 O        -9.9545372002        4.3023121628        0.6736859964
 C       -12.0222103481        4.6399174443        1.8100466681
 C       -12.4642654340        5.2768238170        3.2588120766
 O       -12.9474982705        4.6551532365        4.1521751225
 C       -12.6753144878        6.8546419477        3.2200028991
 C       -13.0842124370        7.2875244652        4.6199270874
 C       -12.0482045981        7.4199000052        5.7200701441
 O       -10.9582288864        6.9487425293        5.6711411677
 C       -12.4923895284        8.0629550053        7.1663390384
 C       -13.9552617562        8.2089687161        7.3509220712
 O       -14.6056291992        7.1666993555        7.3851868833
 C       -14.6211036472        9.4949887778        7.6766572228
 C       -12.0096111142        6.9929135727        8.1127290569
 C       -11.7321822820        9.4279412195        7.3257265568
 C       -13.2648431877        4.7212411623        0.8877096363
 C       -11.6381051514        3.1288767111        1.9964601040
 C        -8.1770354629        5.8549682625       -3.7108432071
 C       -10.0827893742        7.4739976856       -3.0067180150
 C       -11.4190870985        0.9743413898       -6.0908977907
 C       -12.5841612850       -0.2287204752       -4.1756483157
 C        -5.3083416106        3.8119331698       -2.9481802362
 C        -5.2702871748        2.2475269162       -4.8919338955
 C        -9.4226118834       -1.2620761752        1.5895322782
 C        -7.1911937086       -2.2186258693        1.2249171223
 H       -10.1582835663       -3.3822744444        0.6301910851
 H       -10.0220824526       -4.0949780320       -1.0080873885
 H       -10.8981692338       -2.7162040075       -0.8773418153
 H        -5.9329462797       -0.8395430497       -0.8378549335
 H        -5.8123274570        0.2167112348        0.5879549853
 H        -4.8755576524        1.6130254401       -0.7823842674
 H        -6.5938057853        2.1087873799       -0.8718984130
 H        -7.6372196613        0.7819156479       -5.1995886619
 H        -9.0394996639        1.9917808684       -5.0423502918
 H        -9.3479800555        0.6456535801       -2.5167854149
 H        -8.4442221067       -0.6066792808       -3.3618367383
 H       -12.7247899765        3.8849938394       -3.4105046117
 H       -12.5122523078        3.3509163293       -4.9764539026
 H       -11.0767095758        5.1743147076       -4.8187750337
 H        -9.9046131134        4.0290129036       -4.7642978908
 H        -9.5478699387        8.2544724658       -0.2733113073
 H        -8.5202798852        7.1478528893        0.6249253086
 H       -11.5200542016        6.6829319756       -0.1336715254
 H       -10.8492921347        7.4647043654        1.1972805770
 H       -13.4989902093        7.1516389335        2.5328403892
 H       -11.8176134690        7.4382901641        2.9529128105
 H       -13.6341320093        6.4041315507        4.9219917379
 H       -13.8371847987        7.9595269516        4.5896452759
 H       -14.1426353328       10.3036024463        7.1698835783
 H       -14.7060994072        9.8098253397        8.7187669053
 H       -15.5900275802        9.5359226961        7.1879248438
 H       -12.0967447472        7.2541350038        9.1699560738
 H       -10.9521754165        6.7632249526        8.0175193066
 H       -12.4722930676        6.0255193571        7.8846353618
 H       -11.8643198229        9.8751013093        8.2976268586
 H       -12.2898228591       10.0459867954        6.5889035732
 H       -10.6793095488        9.2481720402        7.0769855278
 H       -13.8520328604        3.7349066458        0.9118307547
 H       -12.7603664433        4.7561270128       -0.1529667645
 H       -13.9474512293        5.4533815808        0.9722911408
 H       -10.6703703343        3.0555220968        2.5570684666
 H       -11.6147953969        2.4016551619        1.1696392344
 H       -12.3585955813        2.6180865793        2.5873252182
 H        -8.0723142096        6.4881727170       -4.5209205073
 H        -7.9849458265        4.8222258126       -4.0635254902
 H        -7.2289278600        6.2760660777       -3.3468038126
 H       -10.5379560824        7.8597025492       -2.0851460503
 H       -10.7900763748        7.4428121806       -3.8444973675
 H        -9.4210213627        8.1746008297       -3.4613833147
 H       -10.6650242132        1.6334143858       -6.4092147633
 H       -12.4177301692        1.2344088637       -6.3213104600
 H       -11.0349891245        0.0981643029       -6.6163408701
 H       -12.5650587119       -1.0913216165       -4.8105496638
 H       -13.5325103923        0.1946684982       -4.5239298851
 H       -12.5373962305       -0.5546492796       -3.1111940752
 H        -4.2610421375        3.8126143552       -2.6138869350
 H        -5.7526160525        4.0362124333       -1.9282561796
 H        -5.4344088695        4.6693868540       -3.5498610799
 H        -5.2742213145        3.2381227203       -5.5235274622
 H        -5.7858537938        1.5922830118       -5.5730712435
 H        -4.2454172548        1.9125320317       -4.7652520439
 H        -8.9992941292       -0.6081753807        2.4573965264
 H        -9.6837669421       -2.2080690339        2.0608997145
 H       -10.2148572144       -0.7034619568        1.2494469883
 H        -6.5807340628       -1.5984338682        1.7750774529
 H        -6.5718748046       -2.7802025591        0.4882945482
 H        -7.5967750231       -2.8413172070        2.0152846843
 Na       -9.6045801390        2.9066830912       -0.7786569100
