117

 C       -10.6294019729       -2.8155142718       -0.4745304539
 C        -9.2003639215       -2.2732211902       -0.7528549123
 O        -8.4887564562       -2.3666442228       -1.7659638257
 C        -8.4846268729       -1.4931520229        0.4758480594
 C        -7.6448943080       -0.2528627730       -0.0659156784
 O        -8.3415385548        0.7411094689       -0.3659809672
 C        -6.1505348568       -0.1989669846       -0.1122877123
 C        -5.6727281069        1.0535015067       -0.9078927812
 C        -5.5398892303        0.7957549605       -2.4401419297
 O        -5.2472302107       -0.2818365246       -2.9389940826
 C        -5.8484967454        2.1981194745       -3.2825133149
 C        -7.4955032744        2.0703345126       -3.3142012815
 O        -8.1240195773        2.8639256811       -2.5841882177
 C        -8.3273460856        1.2245631496       -4.2382191992
 C        -8.9327096928       -0.1171121392       -3.7692210845
 C       -10.3249625150       -0.5567796009       -4.2571680013
 O       -10.5486060269       -1.6926877405       -4.5028582694
 C       -11.4159660287        0.5904824621       -4.5772761751
 C       -11.1772308409        1.8484360753       -3.7124793686
 O       -10.7587475975        1.6364705224       -2.6100715545
 C       -11.5365183922        3.2241906580       -4.2031151007
 C       -10.3862182234        4.2612380087       -4.1874680669
 C       -10.3297871190        5.1828223702       -2.9181348562
 O       -11.0073844686        4.9024055699       -1.9386359715
 C        -9.3358450188        6.3713597600       -2.9731103582
 C        -8.8714069796        6.6739056204       -1.4894149443
 O        -7.7073051690        6.3639808443       -1.4065609107
 C        -9.6385391826        7.3227768248       -0.2985189100
 C       -10.8162270766        6.6147226645        0.2810345671
 C       -10.6350555406        5.3235044482        1.0279648876
 O        -9.5347975445        4.7568672636        1.1632699180
 C       -11.9915482772        4.6498004422        1.6757384343
 C       -12.4523094089        5.4461563443        3.0799176151
 O       -13.1638390614        4.8588975819        3.8492654708
 C       -12.3208553090        6.9217497686        3.3417211222
 C       -12.9808361713        7.3136013174        4.6952761303
 C       -11.9608096710        7.6799517429        5.7275615774
 O       -10.7994399090        7.7977425586        5.4105382331
 C       -12.3939392416        8.1349974672        7.3335067607
 C       -14.0560707420        8.4756308361        7.3781481469
 O       -14.7034329467        7.5204158099        7.4980068208
 C       -14.5038841377        9.9751715509        7.1884356176
 C       -12.0893492365        7.0640858548        8.4457518679
 C       -11.5721725832        9.3899748480        7.7017471404
 C       -13.0210104916        4.6967358898        0.5351160442
 C       -11.6285642359        3.1706848957        1.9170875739
 C        -7.9954654233        6.0256023406       -3.7662075550
 C       -10.2326163939        7.4440179292       -3.7764970833
 C       -11.4795460816        0.9096161259       -6.1693648389
 C       -12.8010550289        0.0906484979       -4.0501151819
 C        -5.3936925408        3.5935824009       -2.6145989643
 C        -5.3876715957        2.2183272392       -4.6919184153
 C        -9.5331659435       -1.0708370980        1.5345485495
 C        -7.6240211477       -2.6309829865        1.1972788608
 H       -10.5798603366       -3.8563622592        0.0112069041
 H       -11.1363355506       -2.7424918380       -1.3923086782
 H       -11.2952422319       -2.2598833075        0.2125826679
 H        -5.7055502318       -1.1088424700       -0.6674605082
 H        -5.7001151330       -0.2713944408        0.8652852427
 H        -4.5828307219        1.3155904260       -0.5135550014
 H        -6.3568692152        1.8771588062       -0.6785403653
 H        -7.5697268781        1.0181147107       -5.1459835715
 H        -9.0154651062        1.9146971722       -4.6096317592
 H        -9.1478790864        0.1297655631       -2.6917639306
 H        -8.3525687878       -1.0092755453       -3.7522598150
 H       -12.4517910012        3.4604629393       -3.6091220039
 H       -11.9354235666        3.0883825361       -5.2578865947
 H       -10.6299236086        4.9722370609       -5.0631603637
 H        -9.4437353626        3.9544175892       -4.5652442115
 H        -9.9401488665        8.2854516961       -0.6891030808
 H        -8.8766156273        7.5098711605        0.4914727040
 H       -11.6408507398        6.3651382822       -0.4578528757
 H       -11.5315939773        7.1946943281        0.8735370563
 H       -12.6930127878        7.5884165255        2.4584198923
 H       -11.3861320657        7.2402863374        3.5726628658
 H       -13.6722770551        6.4751830895        5.0818202649
 H       -13.7312271523        8.1860542250        4.5365564078
 H       -13.8767217530       10.3089023073        6.3404836102
 H       -14.1251744170       10.6756661603        8.0165330290
 H       -15.5969068722       10.1261601282        7.0425097493
 H       -12.1436071368        7.6244714912        9.3788591757
 H       -11.0652998262        6.6627375137        8.6265744230
 H       -12.7403985955        6.2177626752        8.4431240538
 H       -12.0261546253       10.2582470030        8.1929593974
 H       -11.2384341709        9.7326434690        6.6249508048
 H       -10.6342108189        9.1336636147        8.2596516644
 H       -13.7619081067        3.8572486105        0.6541619704
 H       -12.5945352054        4.2699580536       -0.4566403681
 H       -13.5377420337        5.5571593588        0.4473614418
 H       -11.1655585691        2.9437522233        2.9522366880
 H       -10.7833862901        2.8489351134        1.3642881557
 H       -12.3803191208        2.4246544363        1.8810298620
 H        -8.0363992315        5.3646780421       -4.5266049612
 H        -7.2920119592        5.5763912958       -3.0231559872
 H        -7.4658371133        6.7933890879       -4.2786324831
 H        -9.9898072853        8.4744789542       -3.5144592547
 H       -11.3059760720        7.2439693533       -3.4742498345
 H       -10.1855196683        7.4556321307       -4.8883500231
 H       -10.6769292359        1.5799969282       -6.5515895077
 H       -12.5128953157        1.1565445616       -6.3708862103
 H       -11.2132595424       -0.0463925393       -6.6588472228
 H       -13.2525575191       -0.6340989748       -4.7225823348
 H       -13.5683958697        0.8926692815       -4.1424670317
 H       -12.7461025436       -0.1721712199       -2.9901079711
 H        -4.7358507958        3.5027775242       -1.7910896471
 H        -6.1689873857        4.0303291449       -2.0052264746
 H        -5.0176905235        4.3510212557       -3.2560888157
 H        -6.1030153147        2.7541233719       -5.3296943846
 H        -5.1857073572        1.3120170740       -5.1004179572
 H        -4.5596043144        2.8179585293       -4.8304650634
 H        -9.0667266161       -0.6039190077        2.4835489848
 H       -10.2898506443       -1.8614417654        1.7017634436
 H       -10.0662840522       -0.2474221192        1.1672468623
 H        -7.2541509549       -2.4083260544        2.2168021704
 H        -6.7385417157       -2.7442838923        0.4856364384
 H        -8.1379097011       -3.5814624447        1.2273172468
 Na       -9.5040138845        2.8488362620       -0.7622956825
