117

 C       -10.6471681955       -2.6294634938       -0.6146847508
 C        -9.2855418055       -2.1285458310       -0.7355678730
 O        -8.7034148471       -2.2895199025       -1.7884886412
 C        -8.5525601285       -1.5673921461        0.5389706807
 C        -7.6520789856       -0.2991164562        0.0014245676
 O        -8.2533152691        0.6957593631       -0.4253233254
 C        -6.1718349008       -0.4046620252       -0.3001149667
 C        -5.5514487056        0.9139014521       -0.7523656482
 C        -5.3882245429        0.8578232171       -2.2929768531
 O        -5.1770265110       -0.2113744405       -2.7425644463
 C        -5.8733268144        2.0503631545       -3.1954014605
 C        -7.4469634534        2.0141505467       -3.2165760931
 O        -8.0685296300        2.8124943867       -2.5360781485
 C        -8.1540188173        1.0910939868       -4.3063307682
 C        -8.8446571273       -0.2237491037       -3.6823585678
 C       -10.3875850669       -0.5694745463       -4.3409573193
 O       -10.8652598401       -1.6662626957       -4.2284880807
 C       -11.4495258889        0.5464163087       -4.6770507645
 C       -11.0321299512        1.7591017907       -3.7189620706
 O       -10.6628062857        1.4968517915       -2.5713155756
 C       -11.5220232736        3.2830699263       -4.1188540039
 C       -10.4342484771        4.3064736870       -4.3641920150
 C       -10.2167080549        5.1367416192       -3.0909004451
 O       -10.8239514701        4.8501546990       -2.0744845818
 C        -9.3144576762        6.3492201552       -3.0837256259
 C        -8.8100317856        6.7226721181       -1.5789046341
 O        -7.7431839440        6.2604216450       -1.1315246921
 C        -9.6958576631        7.5228987015       -0.5358756363
 C       -10.8817638085        6.8721445646        0.1713567093
 C       -10.7814633325        5.4773580100        1.1233172255
 O        -9.6897596717        4.9109560296        1.1699393341
 C       -11.9721892048        4.7072288186        1.6797187492
 C       -12.6007828604        5.3729368126        3.0358220356
 O       -13.2406436694        4.7047712776        3.7436889482
 C       -12.1856072935        6.8318873562        3.3260671526
 C       -12.7927778425        7.3052143891        4.6835810922
 C       -11.8956125455        7.8609052817        5.8422046223
 O       -10.7517727332        8.0774182888        5.5801523737
 C       -12.3934417796        8.2689234929        7.2524862666
 C       -13.9031174192        8.5320479238        7.2091443043
 O       -14.7545650759        7.6646717448        7.5170608190
 C       -14.2837043093        9.9212767238        7.0562488632
 C       -12.2886803681        7.0598760630        8.1849831740
 C       -11.4923815896        9.5015641841        7.6940130354
 C       -13.1310691808        4.7044248182        0.7311549785
 C       -11.4874594775        3.1627968962        1.9711216850
 C        -8.1095002682        6.2742028745       -3.9717849410
 C       -10.2206090551        7.5650636204       -3.6556361526
 C       -11.5455714808        0.6394394715       -6.2574649958
 C       -12.8099529597        0.1223118284       -4.0510923746
 C        -5.3848485062        3.2821748929       -2.4986123924
 C        -5.3383981290        2.0051334810       -4.6825442631
 C        -9.5657292266       -1.0328493754        1.6317675767
 C        -7.7727600369       -2.7538974524        1.1419978545
 H       -10.6806937177       -3.5931104480       -0.2072175879
 H       -11.1390440747       -2.4296814238       -1.5659720533
 H       -11.2270507228       -2.0569330802        0.1831101773
 H        -6.0675154642       -1.1532193618       -1.1744592093
 H        -5.5263513788       -0.8656734659        0.4602594842
 H        -4.6433090103        1.0882667651       -0.2063713466
 H        -6.2876573037        1.7608696320       -0.5077058695
 H        -7.5478642379        0.8009830387       -5.0665784246
 H        -8.8631384461        1.8905649905       -4.7812669661
 H        -8.8454575122       -0.2140825521       -2.5427477444
 H        -8.3402599035       -1.1258469261       -3.9936972003
 H       -12.0926537857        3.5109698958       -3.2044162602
 H       -12.2711319259        3.1796440335       -4.9125528531
 H       -10.5753844148        4.9701791966       -5.2351626440
 H        -9.4579549916        3.8717640631       -4.7143101494
 H        -9.9793793330        8.4664452963       -1.0311875586
 H        -8.9674004184        7.7663482916        0.2333739439
 H       -11.6807752583        6.6123825693       -0.5380136269
 H       -11.5889817256        7.5561481886        0.7395892883
 H       -12.5763073375        7.4748626395        2.5479612026
 H       -11.0516481241        6.9081991837        3.3214156722
 H       -13.3050323702        6.3405711617        4.9954042232
 H       -13.5960985604        7.9370749105        4.4943597763
 H       -13.7571050084       10.1758063425        6.1036869606
 H       -13.9806627285       10.6974570772        7.7747942295
 H       -15.3870161767        9.8534457080        6.8854166189
 H       -12.3334702448        7.4679735274        9.1664936464
 H       -11.3664417257        6.5868955332        8.2783764150
 H       -13.0959533043        6.3155678051        8.0414148287
 H       -11.7317337264       10.1828561164        8.6004213945
 H       -11.3949195458       10.1031740586        6.7968676285
 H       -10.4286949223        9.0234968791        7.8494245602
 H       -14.0574204926        4.4008637555        1.2258195120
 H       -13.0809252381        3.8091466446        0.1094998104
 H       -13.2979468668        5.6254777345        0.1589815051
 H       -11.0450724036        2.8770028119        2.8581997194
 H       -10.7293051142        2.7120381612        1.2684262172
 H       -12.3906871791        2.5575641281        2.0407802132
 H        -8.2992167439        5.8909850154       -4.9721451321
 H        -7.4210104289        5.6232042561       -3.5272791437
 H        -7.5114360366        7.2080042311       -4.1266355402
 H        -9.7006418775        8.5236571203       -3.9069669328
 H       -11.1380002510        7.6950917810       -2.9907991870
 H       -10.5982110008        7.3043848247       -4.6528607844
 H       -11.2014535267        1.6064054972       -6.6032562441
 H       -12.5033339697        0.3355092023       -6.6479855021
 H       -10.7410689661       -0.0526392553       -6.6004215816
 H       -13.0638121557       -0.8445045173       -4.3566143321
 H       -13.6964413222        0.7148238387       -4.2717457984
 H       -12.6154365563        0.2361204685       -2.8529129405
 H        -4.7305658122        3.0237494377       -1.6769947356
 H        -6.0868062815        3.8772021114       -1.8970457714
 H        -4.8937326177        3.9814105903       -3.0812193720
 H        -5.9276760407        2.5331132944       -5.3824866807
 H        -4.9465007382        1.0945190757       -5.0377808130
 H        -4.5268029379        2.6714639384       -4.7169122942
 H        -9.1543766005       -0.1258327768        2.1662395236
 H       -10.0489438153       -1.7906911856        2.2512628463
 H       -10.4253342236       -0.6149404738        1.1119545421
 H        -7.1486006444       -2.5395466029        1.9631492525
 H        -7.2175265374       -3.3253861767        0.3513620655
 H        -8.6080561833       -3.4476585434        1.4632263295
 Na       -9.5744284268        2.8774570985       -0.6672960230
