117

 C       -10.9167194434       -2.5595090638       -0.7625905797
 C        -9.4122309468       -2.0181465886       -0.7637937991
 O        -8.7448668687       -2.1731515497       -1.7390709995
 C        -8.6095690796       -1.5367406926        0.5600914328
 C        -7.7724256738       -0.4092369240       -0.0412189902
 O        -8.2885434979        0.6611260420       -0.3111003387
 C        -6.2596633415       -0.6523096934       -0.3016395885
 C        -5.5218265499        0.6706375052       -0.6581100982
 C        -5.5309903332        0.7075484460       -2.2346079333
 O        -4.9596466190       -0.2118671423       -2.8009332554
 C        -5.8281939291        2.0392388995       -3.0908692870
 C        -7.4198566550        1.9581774241       -3.2238796261
 O        -8.0438351838        2.6643857938       -2.4988070327
 C        -8.1249647466        0.8885292386       -4.3264873360
 C        -8.9724476630       -0.3012968682       -3.8406065829
 C       -10.4118718606       -0.5729259015       -4.1238361271
 O       -10.8130542323       -1.7344672665       -3.9635388538
 C       -11.3625741523        0.5721065015       -4.5489405774
 C       -11.0999219782        1.8119946606       -3.7516597399
 O       -10.5894484417        1.6004033981       -2.6530683199
 C       -11.5231883350        3.2451267066       -4.1292909856
 C       -10.4499324415        4.2446523006       -4.3936018292
 C       -10.0805507402        5.1023232758       -3.1193342974
 O       -10.6087563148        4.7078059783       -2.0909400233
 C        -9.2939468708        6.4431443596       -3.0824230100
 C        -8.8591001353        6.6333130946       -1.4660210458
 O        -7.8751999684        6.1731564660       -1.0553861998
 C        -9.7855006706        7.5309671815       -0.5943732823
 C       -10.9808514076        6.8953264811        0.0704135696
 C       -10.7424566523        5.5331954518        0.9100929640
 O        -9.6072036243        5.1649354618        1.0099786282
 C       -12.0396453052        4.7882279317        1.6093297124
 C       -12.4945339377        5.2740126885        3.0559595715
 O       -13.3228822718        4.5260347806        3.6168453215
 C       -12.0940696584        6.7123610484        3.5612745693
 C       -12.7850801733        7.2806429761        4.8242959052
 C       -11.6930792274        7.9822230668        5.7264833223
 O       -10.5112148035        8.2920850643        5.5608251592
 C       -12.3853257648        8.2985194164        7.2113438529
 C       -13.9068277370        8.6935472055        7.1634860450
 O       -14.7474932733        7.8166018307        7.4356914558
 C       -14.3089731562       10.2000356635        6.7628311461
 C       -12.2253420443        6.9308426672        8.0341098211
 C       -11.5835406306        9.4069143722        7.7225647060
 C       -13.3683276971        4.6932206713        0.8120442757
 C       -11.5405378738        3.4754850050        2.0700426509
 C        -8.1507921157        6.5155519284       -4.1907535046
 C       -10.1745432421        7.6899568007       -3.4723100614
 C       -11.4923482738        0.5763061568       -6.0853381155
 C       -12.8062605967        0.1539074106       -4.1210696232
 C        -5.3716607395        3.2609266745       -2.3254354744
 C        -5.2350251082        1.6809135864       -4.5484084893
 C        -9.4611711028       -0.8756843675        1.6608313712
 C        -7.8012899227       -2.7372001720        1.0709354860
 H       -10.9252982471       -3.4863439527       -0.2637396921
 H       -11.3533892392       -2.4734445891       -1.8079331068
 H       -11.5279613628       -2.0255933354       -0.0663333120
 H        -6.0180994364       -1.3813770514       -1.0489247104
 H        -5.7441119737       -1.0869103222        0.6157210777
 H        -4.5151656602        0.7016060210       -0.3457684803
 H        -6.0074658791        1.5779897705       -0.2314879409
 H        -7.4086623774        0.3806560949       -4.9332908394
 H        -8.5562436463        1.7157131922       -4.9803918995
 H        -8.8945702895       -0.3624883722       -2.7636836528
 H        -8.4741188237       -1.2662946737       -4.2288756602
 H       -12.1264411660        3.5193994655       -3.2685003710
 H       -12.1793973018        3.1115780362       -4.9536444782
 H       -10.7072411429        4.8981522431       -5.1841460243
 H        -9.5316134667        3.7608236180       -4.8527923220
 H       -10.1324760496        8.3035217317       -1.3020561647
 H        -9.1434910898        8.0210615309        0.1165703010
 H       -11.8848557482        6.9192460677       -0.5170890214
 H       -11.4534060996        7.4955126319        0.8643829029
 H       -12.3836291728        7.3459534431        2.7957825086
 H       -10.9021578986        6.7747949097        3.6524981357
 H       -13.2388761135        6.4796317058        5.2782809181
 H       -13.5572047651        7.9641559867        4.5785281131
 H       -13.8227270390       10.6437870482        5.8737240206
 H       -14.0407706995       10.8647302192        7.5595271189
 H       -15.3945713183       10.1453558222        6.7222058825
 H       -12.3393521529        6.9662715872        9.1093761627
 H       -11.1953013141        6.6531255265        7.9518253870
 H       -12.8615954073        6.1373837707        7.6243453636
 H       -11.7058501043        9.3676918563        8.8468984734
 H       -11.8746880467       10.3768331500        7.3607574967
 H       -10.5319228280        9.2368689863        7.5600300442
 H       -14.2888805102        4.6697391952        1.3238292252
 H       -13.4662628699        3.7731977841        0.3766126858
 H       -13.3461899763        5.5777576378        0.0269110641
 H       -10.7750636110        3.3097760176        2.7687561041
 H       -11.1498313074        2.8083563489        1.2602496569
 H       -12.4091269141        3.0021593810        2.5869809316
 H        -8.6943888750        6.5583477907       -5.2251454523
 H        -7.5993066831        5.5989713537       -4.2751703764
 H        -7.2935775337        7.2432185776       -4.1429631677
 H        -9.6919980601        8.4903897377       -4.0492583553
 H       -10.8729495219        8.0335886224       -2.7360035442
 H       -10.7881004991        7.3052742762       -4.3130588346
 H       -11.8088930991        1.5982003398       -6.3455803982
 H       -12.2203793170       -0.1917435430       -6.4288738689
 H       -10.5514124014        0.3531985370       -6.5569745810
 H       -12.8651922022       -0.9537282044       -4.3947901667
 H       -13.6863679728        0.6552511990       -4.5667194087
 H       -12.9226029689        0.3204217380       -3.1116395195
 H        -4.4898363420        3.1158538263       -1.6880865736
 H        -6.0159056765        3.7378569472       -1.6180830803
 H        -5.1582746885        4.0594963947       -3.0778335694
 H        -5.5980826029        2.2459501112       -5.3470146035
 H        -5.1759026940        0.5475926764       -4.6540467999
 H        -4.1439393269        1.9679038137       -4.6717787238
 H        -9.0312242005       -0.0341174651        2.0503674404
 H        -9.7196759858       -1.6059052308        2.4178754729
 H       -10.5468449912       -0.6446611903        1.3158074108
 H        -6.9474485031       -2.4884637829        1.7319725931
 H        -7.5346434927       -3.4055032573        0.3214825941
 H        -8.5634394291       -3.2756035419        1.6535905113
 Na       -9.6369247270        2.8925477186       -0.7032966926
