117

 C       -13.2674189651       -2.0593459824       -6.3150063489
 C       -11.8875231844       -2.7059474127       -6.0560490981
 O       -11.6585180958       -3.8580566401       -6.3534639730
 C       -10.7460066949       -1.6830030614       -5.4780535454
 C       -11.4504313316       -1.2556120519       -4.1285560256
 O       -12.0530294315       -0.1872500634       -3.9848675957
 C       -11.3562850048       -2.2697885633       -2.9941582595
 C       -12.1811490543       -1.8402963860       -1.6655826569
 C       -11.3474413173       -2.3658791814       -0.4417675410
 O       -11.3721210603       -3.4984180749       -0.1395299450
 C       -10.6314631413       -1.2746672944        0.5468853173
 C       -11.6898200109       -0.6475440141        1.5103436032
 O       -12.8499668436       -0.9713303922        1.7009358843
 C       -11.0622151123        0.4589455588        2.4126856998
 C       -11.9347860952        1.7871245796        2.5996875838
 C       -11.0680494925        2.9064111797        3.1673243975
 O        -9.9260338582        3.0120183175        2.7742121778
 C       -11.5240867455        3.8866410936        4.3423303841
 C       -11.9183237151        5.1570388460        3.6382961157
 O       -11.0393543752        6.0389690308        3.3543674848
 C       -13.2799008178        5.5306340259        3.0853045109
 C       -13.3831762117        5.0471316938        1.5087980679
 C       -12.1141447478        5.1139465331        0.6368718810
 O       -11.3069824633        4.1944498563        0.6469132744
 C       -12.0481098737        6.3148193724       -0.3790071484
 C       -10.5693000711        6.7278630139       -0.8610537805
 O        -9.6373805888        6.2334006242       -0.2949534379
 C       -10.3504015456        7.8092538754       -1.9228310925
 C        -8.8835464654        8.2350573284       -2.2811001793
 C        -8.2724015746        9.2199061512       -1.3131526354
 O        -8.8731650857        9.6416940044       -0.3374610520
 C        -6.6687270916        9.5207723822       -1.3386736097
 C        -6.2118173335        8.5490772602       -0.1023729608
 O        -5.8876369482        7.4458695424       -0.3901455272
 C        -6.2173071160        9.0381165297        1.3306498515
 C        -5.3520333935        7.9693335325        2.0627740720
 C        -6.1869792084        6.6811852575        2.2179890447
 O        -7.3874732629        6.7560662046        2.3294797056
 C        -5.5277907515        5.2325016299        2.0129290055
 C        -6.1723596319        4.7892065584        0.6502223739
 O        -7.3086835330        4.3907778585        0.6600177473
 C        -5.2040796307        4.4798409140       -0.6119709269
 C        -3.9889021023        5.2913088318        2.0170611338
 C        -6.1048706793        4.4568771956        3.2474702207
 C        -6.0632658536        9.1720844846       -2.6341637041
 C        -6.4352710104       11.1054266378       -0.8937677363
 C       -12.9967791957        6.0708526361       -1.5725826549
 C       -12.5997744200        7.6454086164        0.1785269325
 C       -12.5627383885        3.4156081817        5.3143861953
 C       -10.1941166515        4.1778886874        5.1996830976
 C        -9.7564435826       -2.1455300585        1.4599247410
 C        -9.7444700740       -0.2143858159       -0.2143020760
 C        -9.5060494286       -2.5227988464       -5.2791140581
 C       -10.4171751242       -0.6590002755       -6.4491848879
 H       -13.0715296157       -0.9185966105       -6.3234985733
 H       -13.8694062463       -2.2062765125       -5.4373491526
 H       -13.6651038133       -2.4035503934       -7.2643783760
 H       -10.3689987486       -2.4876236311       -2.7638056333
 H       -11.6555592430       -3.3128258215       -3.3417986144
 H       -13.1216934628       -2.4067288940       -1.6239865417
 H       -12.3058843940       -0.7173129646       -1.5585865987
 H       -10.0727634106        0.7682207188        1.9731726138
 H       -10.8807507503        0.0281839158        3.4488824974
 H       -12.8247153469        1.5377109177        3.0843399378
 H       -12.2172463933        2.1438093553        1.5687837439
 H       -13.3989657176        6.5971782064        3.1242079384
 H       -14.2199790549        5.1433253427        3.5178345199
 H       -14.1854861639        5.5505737400        1.0876411998
 H       -13.6299060871        3.9782669772        1.4947634791
 H       -11.0738923964        8.6691527763       -1.8148572573
 H       -10.8436327749        7.3541309206       -2.8367608613
 H        -8.9454949055        8.7527158146       -3.2717040645
 H        -8.3691864515        7.2758521573       -2.5071862706
 H        -7.2546666713        9.1727536578        1.5406671371
 H        -5.7709344262        9.9869226313        1.4334271113
 H        -5.0822649411        8.3441648330        3.0398917886
 H        -4.3925701518        7.7850509579        1.5715249867
 H        -4.1538893656        4.4703714666       -0.3935976086
 H        -5.3784761186        5.1668573982       -1.3859225602
 H        -5.3209638318        3.5189667967       -1.0114649881
 H        -3.5599304978        5.5273596469        3.0736395630
 H        -3.6093335297        6.0117030680        1.3733870840
 H        -3.5270155991        4.3391637530        1.6835875990
 H        -7.0307838247        4.8830904279        3.6547752759
 H        -5.4371285066        4.5246854792        3.9943510136
 H        -6.2021202805        3.3614270362        2.9773147812
 H        -6.4807304959        9.7788685189       -3.3888710032
 H        -6.2918879902        8.1913518719       -3.0532255663
 H        -4.9587067203        9.0975383600       -2.5388963532
 H        -5.3663553214       11.2989505873       -0.6838847174
 H        -7.0171594997       11.3521093250        0.0330089099
 H        -6.6211515478       11.8276874307       -1.6954013511
 H       -14.0490011323        5.8657799441       -1.3520374776
 H       -12.6349590780        5.2250102483       -2.0838584096
 H       -12.9683940512        6.9696289783       -2.2544321615
 H       -11.9388915707        8.1271999533        0.9121415176
 H       -13.4954982623        7.6575030422        0.7261755165
 H       -12.6264303537        8.3420623555       -0.5559482600
 H       -13.5138495536        3.2927925393        4.8554675538
 H       -12.7093654217        4.1218236000        6.1526616839
 H       -12.3415609480        2.4276023730        5.8018106923
 H        -9.6605120296        3.3395735048        5.6186649672
 H       -10.3855659487        4.9000746199        6.0233782996
 H        -9.4507282915        4.7540478367        4.6062431859
 H        -9.0660447465       -2.6983609484        0.8674522945
 H       -10.3889026263       -2.8214652897        1.9527422644
 H        -9.2647538270       -1.5719475293        2.2278082289
 H       -10.2619259408        0.2292962367       -1.0213813060
 H        -8.9808165626       -0.7395527760       -0.7852890605
 H        -9.3903648157        0.6336812956        0.3956601055
 H        -9.7713848501       -3.4235873887       -4.6842345298
 H        -8.7924216560       -1.8282724182       -4.9362508072
 H        -9.2619019212       -2.8474156852       -6.2541156714
 H       -11.0153607208       -0.5138674448       -7.3513629086
 H        -9.4097612027       -0.6489529150       -6.7804126099
 H       -10.3940607867        0.2852828317       -5.9636097563
 Na       -9.3470229523        5.2970644894        1.7757781487
