117

 C       -11.0371237698       -2.3988881240       -0.8317360961
 C        -9.4994136628       -2.1324817943       -0.6684573464
 O        -8.8199700091       -2.1371184993       -1.7191508841
 C        -8.8202663494       -1.5818261175        0.5887187354
 C        -7.8778716224       -0.4126627884       -0.0432796945
 O        -8.2775347751        0.7241818854       -0.2141611845
 C        -6.4099263177       -0.7691819247       -0.2013130781
 C        -5.5588040313        0.4440334214       -0.7068452586
 C        -5.3121676883        0.5268082171       -2.2191621523
 O        -4.7986727016       -0.4041415427       -2.8406337097
 C        -5.8413498572        1.7911230041       -3.0226431891
 C        -7.4701322852        1.7414495979       -3.2762511346
 O        -8.1392641572        2.4700731636       -2.5259351519
 C        -8.0648236840        0.9587977155       -4.3137700342
 C        -8.7196799839       -0.3183589297       -3.8096788857
 C       -10.3674251038       -0.6486633643       -3.9705522021
 O       -10.7808555918       -1.7459562460       -3.7349427040
 C       -11.4385933198        0.5021530152       -4.4591446070
 C       -11.1140649403        1.8676455321       -3.6701419648
 O       -10.5315298982        1.8298437169       -2.6083843647
 C       -11.5343236346        3.2757969616       -4.2587526955
 C       -10.3961833692        4.3264824663       -4.4011342349
 C       -10.0852396838        5.1431033147       -3.0658197089
 O       -10.3287916515        4.6163662371       -1.9769364041
 C        -9.4293434665        6.5039897885       -3.1559636833
 C        -8.8874586418        6.6502564283       -1.5706043340
 O        -7.9793572359        6.0219856379       -1.1199625663
 C        -9.8078625330        7.4658255648       -0.4816831963
 C       -11.1654088931        6.9079960493        0.0068775339
 C       -10.8601185424        5.6671618723        0.8101630262
 O        -9.7288891354        5.2052944705        0.8239432197
 C       -12.0181193367        4.8438740452        1.5512845795
 C       -12.5806835029        5.4250125181        3.0428085891
 O       -13.3073622570        4.6729478008        3.6626730205
 C       -11.8788812849        6.6494254492        3.6669542456
 C       -12.5764286318        7.1924379843        4.9597510971
 C       -11.7350743954        8.0587305560        5.7473627859
 O       -10.6151818395        8.3260886733        5.3552681290
 C       -12.2484444495        8.3864897604        7.1836313877
 C       -13.8910974837        8.7877397911        7.0578715383
 O       -14.7923806003        8.0848393986        7.2959026077
 C       -14.2764553595       10.2096830617        6.5282945808
 C       -12.1424313313        6.9585730127        7.7952429701
 C       -11.5326553978        9.4654398731        8.0558177147
 C       -13.3354081427        4.7530480706        0.7436657530
 C       -11.4220697994        3.4568328313        1.9365934016
 C        -8.1899091797        6.5759419257       -4.1144023066
 C       -10.3335542277        7.6588341874       -3.4681257605
 C       -11.3030978023        0.7105798323       -6.0851557440
 C       -13.0117943804        0.0972476585       -4.0500709877
 C        -5.4211573869        3.1141464809       -2.4378866469
 C        -5.0931155426        1.6426303299       -4.3020212363
 C        -9.5107077974       -0.7904500066        1.6977637195
 C        -7.8826557724       -2.7256758929        1.0361671364
 H       -11.3082916778       -3.3290493254       -0.2370926669
 H       -11.2702115317       -2.3800872230       -1.8799565997
 H       -11.5970937107       -1.7195148246       -0.2434691151
 H        -6.1673968028       -1.6657923472       -0.6980328149
 H        -6.0197705388       -0.9345871395        0.8064649190
 H        -4.5231994057        0.4292957014       -0.1997851689
 H        -5.9188962313        1.3605744972       -0.3341666174
 H        -7.2592506498        0.5904980851       -5.1394733521
 H        -8.6809155029        1.6508491748       -4.8094649411
 H        -8.7906644840       -0.1841317695       -2.7321802245
 H        -8.1431440847       -1.2384918777       -4.0432612505
 H       -12.3207161435        3.6400086319       -3.6211757919
 H       -11.9405127042        2.9523854229       -5.2032892335
 H       -10.5752845283        5.0312807803       -5.2390037688
 H        -9.4743348191        3.8449379602       -4.6803503407
 H        -9.9118357467        8.4669531028       -0.8945450446
 H        -9.1257357005        7.5103284717        0.3861439513
 H       -11.9471189157        6.7110510727       -0.7343266575
 H       -11.8091821284        7.4878341151        0.5980543896
 H       -11.7460875262        7.5202611334        2.9862168846
 H       -10.9367534346        6.1511289931        3.8579677953
 H       -13.0623297235        6.3430799806        5.3472852158
 H       -13.3923239939        7.9112439856        4.6057429217
 H       -13.6929733358       10.7277593140        5.8037544379
 H       -14.0358567504       10.7381617905        7.4597402782
 H       -15.3207310294       10.2131881663        6.4201637579
 H       -12.4562751023        6.8524457116        8.8602747060
 H       -11.0195796458        6.7500453762        7.8723035977
 H       -12.6455166853        6.1908965132        7.2536377774
 H       -11.7678833857        9.0203573007        8.9532465435
 H       -12.0011669649       10.4602734856        8.1208753389
 H       -10.5259089481        9.6512151933        7.9766639724
 H       -14.2575271924        4.6365975355        1.2952569710
 H       -13.4332341227        3.7659879846        0.2290418980
 H       -13.3871330005        5.5382199325        0.0816931457
 H       -10.3259135737        3.2341700192        2.2311593481
 H       -11.4021171297        2.8588072953        1.0640882276
 H       -11.8952947097        2.9606826542        2.8001049183
 H        -8.5354034563        6.9721696184       -5.0834879373
 H        -7.7070828602        5.5544618210       -4.4704122741
 H        -7.2619305555        7.0645801907       -3.7628984599
 H        -9.8331005250        8.5806869100       -3.5783448847
 H       -11.1071779254        7.6882282532       -2.7287087349
 H       -10.7117073654        7.5669632444       -4.4931335776
 H       -12.2055801067        1.2656373195       -6.4529076458
 H       -11.1253281663       -0.2466149762       -6.6159591114
 H       -10.3932753876        1.2820521529       -6.2626830217
 H       -13.3334648591       -0.9499508390       -4.2823478291
 H       -13.7318463627        0.7719661627       -4.5136095946
 H       -13.2007783716        0.3534975180       -3.0527787307
 H        -4.3565893093        3.2170022143       -2.1449030190
 H        -5.8752440972        3.4117605830       -1.4942092624
 H        -5.6912730635        3.9635801855       -3.1415742825
 H        -5.0567985563        2.5817245617       -4.9533730648
 H        -5.2184527603        0.6493476417       -4.7938357676
 H        -3.9792277278        1.6121159664       -4.1040249665
 H        -8.7745378199       -0.1646659429        2.1788688626
 H        -9.7575201017       -1.5834055731        2.4049244222
 H       -10.4518688637       -0.3138974221        1.5943905513
 H        -7.1061115872       -2.2558689611        1.6841983305
 H        -7.4643572731       -3.2336926328        0.1855631287
 H        -8.3815080365       -3.4581943895        1.5917168594
 Na       -9.6458582540        2.8787200700       -0.7983182298
