117

 C       -11.1696595435       -2.0779562555       -0.4375309133
 C        -9.7319307473       -2.0395668367       -0.6551705538
 O        -9.0738788127       -2.4765312359       -1.5397204739
 C        -8.9559406039       -1.4513198435        0.7244482735
 C        -7.9355610064       -0.3379406511        0.2440786026
 O        -8.3111466237        0.7796791020       -0.0560013980
 C        -6.4885736806       -0.7546863543       -0.1409286634
 C        -5.4944873646        0.2941582455       -0.6839132863
 C        -5.2176173034        0.2571852825       -2.2635813004
 O        -4.7164688039       -0.7675118628       -2.6227222113
 C        -5.6912881823        1.5404513028       -3.2028218152
 C        -7.1496247610        1.5558791453       -3.3755831513
 O        -7.8339842879        2.1099155027       -2.5243496649
 C        -8.0745803934        0.8615942911       -4.5480628867
 C        -8.7382324140       -0.3328909388       -3.6781288849
 C       -10.2824135649       -0.4773281126       -3.8067361548
 O       -10.8918749583       -1.5072119774       -3.5316841392
 C       -11.2542794049        0.7045025560       -4.4596130931
 C       -11.1022034855        2.0330578187       -3.5881286168
 O       -10.9416957920        2.0375107425       -2.3818163317
 C       -11.4431257305        3.3893810371       -4.3076606525
 C       -10.3632023663        4.4278711155       -4.4112018688
 C       -10.2258335045        5.0619483483       -3.0651826382
 O       -10.3605468206        4.4490598515       -2.0377181851
 C        -9.6527167064        6.5911014121       -2.9880282736
 C        -9.0315516580        6.7012845471       -1.4889139800
 O        -8.0470560631        6.0526424584       -1.3070044745
 C        -9.8217807740        7.5134054140       -0.4847361923
 C       -11.1516167591        6.8432232244       -0.1287217514
 C       -10.8708626012        5.4969441665        0.6296700744
 O        -9.7638439734        5.0226385585        0.4423648071
 C       -11.9764597782        4.8202789222        1.4280312248
 C       -12.4205064074        5.4595768404        2.9388438483
 O       -13.4263618028        5.0687996816        3.4650383370
 C       -11.3978776416        6.5755700267        3.7031228400
 C       -12.3433048706        7.2980324566        4.7156247661
 C       -11.6461342648        8.2608484362        5.7934183195
 O       -10.7179674929        8.9474655388        5.3515583268
 C       -12.2753684889        8.3668673616        7.1764321754
 C       -13.6990544632        8.9196631052        6.8804955694
 O       -14.6709430843        8.1775070955        7.1305510863
 C       -13.7786612537       10.3583870738        6.1507926516
 C       -12.2861548913        7.0695317175        7.9954967196
 C       -11.5229210945        9.4626610361        7.9812837862
 C       -13.3600195388        4.7553371477        0.6383408913
 C       -11.6205744571        3.3742200940        1.7298471946
 C        -8.3207468440        6.6775167472       -3.8169984732
 C       -10.8106013234        7.5009247503       -3.5101042960
 C       -10.9054834297        0.6289892713       -6.0818850743
 C       -12.6904028747        0.1062981904       -4.1126639570
 C        -5.4239479392        2.7412834174       -2.2398322756
 C        -4.9008582012        1.5845905759       -4.5323921586
 C       -10.0210032564       -1.0684848328        1.7138876855
 C        -8.3133235414       -2.7295536656        1.2193525216
 H       -11.5523602217       -2.5609018081        0.3852947293
 H       -11.5011120222       -2.4511133101       -1.4645270764
 H       -11.4772846784       -1.0137287427       -0.2271217261
 H        -6.6645868947       -1.5822184710       -0.8951050326
 H        -5.9688721315       -1.2823306195        0.6625844815
 H        -4.5116961235        0.2431258439       -0.2952564742
 H        -5.7438520684        1.3112049351       -0.1878361468
 H        -7.6975847748        0.3631123438       -5.3346373689
 H        -8.9117138365        1.5518802160       -4.9376963048
 H        -8.5549801705       -0.3291185306       -2.5724594859
 H        -8.4747084606       -1.2651034602       -4.1529714481
 H       -12.2095617101        3.8981701666       -3.6651595978
 H       -11.8145767601        3.0046197017       -5.2685985212
 H       -10.6476932213        5.1930936446       -5.1612960446
 H        -9.2881268120        4.1005246002       -4.5933786950
 H       -10.0734331591        8.5391490870       -0.7886508152
 H        -9.2057010918        7.5314121564        0.3982773163
 H       -11.9198033825        6.8045497402       -0.9156075131
 H       -11.7093411980        7.6761427593        0.4786424809
 H       -11.2311557312        7.3523624746        3.0097531577
 H       -10.4027435272        6.1304247235        4.1047179631
 H       -12.9799932851        6.4677348379        5.1628347721
 H       -13.0160348418        7.9409321629        4.1228418575
 H       -12.7280096762       10.4346850459        5.7784497494
 H       -14.0199644125       11.2392590501        6.7211840850
 H       -14.5370977253       10.1612349659        5.3483781586
 H       -12.7686667389        7.3426900755        8.9530118181
 H       -11.4080888195        6.5314367878        8.2629230863
 H       -13.1035156317        6.4117504977        7.5797212981
 H       -11.7758161220        9.5070416189        9.1087832125
 H       -11.5537923502       10.4666337133        7.6126369010
 H       -10.4414142794        9.2656841038        7.7293783795
 H       -13.7298260741        3.7997903149        0.9079639534
 H       -13.3456561183        4.7282734451       -0.4263360503
 H       -14.0554215668        5.6912527476        0.9571242774
 H       -10.7530784404        3.2377020075        2.2344859362
 H       -11.3663639679        2.8834203932        0.7480222514
 H       -12.1931645646        2.7903737530        2.4312700314
 H        -8.5017394133        6.9972875894       -4.8752156995
 H        -7.7187598445        5.8980193387       -3.8959322651
 H        -7.7296770658        7.3833664672       -3.2798175932
 H       -10.9595901517        8.3538384944       -2.8130088579
 H       -11.7603837220        7.0042156166       -3.5308684488
 H       -10.4831385380        8.0020098938       -4.3976430867
 H       -11.5632922469       -0.1533494043       -6.4322559253
 H        -9.8520544596        0.4217946752       -6.3301248397
 H       -11.0454796249        1.5846927525       -6.6165877695
 H       -12.7770081622       -0.8978861090       -4.6082527319
 H       -13.5268557530        0.7917366203       -4.3339727127
 H       -12.8875648879       -0.0311000093       -3.0780776334
 H        -4.3768737820        3.0066098094       -2.1928924093
 H        -5.6823352427        2.5917033832       -1.2040183546
 H        -5.9044450244        3.6464369807       -2.4581893248
 H        -4.7234836492        2.5129060279       -4.8702872430
 H        -5.4491067370        1.0000070303       -5.2454136342
 H        -3.9279882169        1.1292725421       -4.5106746391
 H        -9.5285681289       -1.1059531365        2.6781785729
 H       -10.9706506315       -1.5729879188        1.8029396059
 H       -10.3299796063        0.0394388466        1.5878996011
 H        -8.0972023816       -2.5412050640        2.2592896534
 H        -7.4799640011       -3.1482896762        0.6779591750
 H        -9.1338214318       -3.5264351739        1.1380299978
 Na       -9.3559669781        2.7537002716       -0.6704577722
