117

 C       -11.3907608585       -1.9548326063       -0.5439915457
 C        -9.8493447041       -2.0552011424       -0.5375564545
 O        -9.1479454411       -2.5466684288       -1.3981722303
 C        -9.0854611899       -1.4874584326        0.7830212241
 C        -8.0400437907       -0.4422847177        0.1888013242
 O        -8.2963765700        0.7549870329        0.2267472107
 C        -6.5913444026       -0.9077941483       -0.1904049389
 C        -5.6169426102        0.1719783754       -0.6015602608
 C        -5.3096768416        0.2113253734       -2.1989550547
 O        -4.8125770012       -0.7738688156       -2.7543730504
 C        -5.5775440299        1.4748755105       -3.0803716497
 C        -7.1114044778        1.4951538150       -3.2331527307
 O        -7.8649733482        2.0379898882       -2.4652460294
 C        -7.8560370818        0.7672080050       -4.3417384588
 C        -8.7069931193       -0.4414027322       -3.7894678613
 C       -10.2659407189       -0.5055552364       -3.8828256350
 O       -10.8910794646       -1.4028672306       -3.3736844802
 C       -11.1192996072        0.6361011404       -4.4820409631
 C       -11.1250970821        2.0121822133       -3.6156725469
 O       -11.1528286298        1.9132679667       -2.4023212993
 C       -11.5245473045        3.4092779591       -4.3508363133
 C       -10.4121115736        4.4418156751       -4.4856242633
 C       -10.0655945489        5.0147156531       -3.0966297035
 O       -10.5894489117        4.4731033799       -2.1183602358
 C        -9.5698643820        6.5751470859       -2.9624637573
 C        -9.1163601118        6.7225841319       -1.4801827627
 O        -8.0564003740        6.2942082775       -1.1392793029
 C        -9.9158689926        7.6089703298       -0.4811252776
 C       -11.0906749970        6.7887116240        0.0990275953
 C       -10.8009834041        5.3526291649        0.5192537941
 O        -9.7147166778        4.8058003430        0.3972972942
 C       -11.9691953202        4.7816230529        1.3945813144
 C       -12.3518151476        5.5760252880        2.6754995497
 O       -13.3754829328        5.1933142439        3.2645703130
 C       -11.4782737892        6.4508346002        3.6006493365
 C       -12.1516162436        7.4058998737        4.6877489440
 C       -11.3972750390        8.2470355719        5.7040590029
 O       -10.7663321033        9.2730414582        5.4802538322
 C       -12.1490143539        8.4014336606        7.1253306306
 C       -13.6211728355        8.8729669154        6.7144183055
 O       -14.6962279219        8.4149347526        6.9974833799
 C       -13.6324571546       10.2396176825        5.9837813254
 C       -12.4568267052        7.0856930697        8.0651822931
 C       -11.3283348197        9.5223688044        7.8134782101
 C       -13.4643756607        4.8566814516        0.6544370031
 C       -11.7053276790        3.3263128010        1.7777984067
 C        -8.5130087482        6.8348208744       -4.0361428638
 C       -10.8622559029        7.3814236577       -3.3878498863
 C       -10.8300659834        0.6102003453       -5.9489033997
 C       -12.6657167785        0.3391171976       -4.2770549528
 C        -5.0542192811        2.7520863886       -2.3909098476
 C        -4.8240899465        1.4038733916       -4.4814398083
 C       -10.0908036602       -0.8533739535        1.7919391215
 C        -8.3611055505       -2.8438958074        1.4146001374
 H       -11.9032163262       -2.5271483764        0.2550986598
 H       -11.6485045685       -2.3252408314       -1.5637787143
 H       -11.6929710722       -0.9668855173       -0.3120946272
 H        -6.6047222248       -1.7989701877       -0.8151145753
 H        -6.1595771989       -1.3252289024        0.8176939645
 H        -4.6925707785        0.2597401860       -0.0999535705
 H        -6.0041136009        1.1381597874       -0.3121217031
 H        -7.0198849804        0.3640301117       -5.1215888697
 H        -8.6245875646        1.3348969633       -4.8348431116
 H        -8.8299127471       -0.2504525021       -2.7531396056
 H        -8.2672682017       -1.4825166565       -3.9687808104
 H       -12.3351280886        3.8429998604       -3.7494361184
 H       -11.8147474451        3.0446280697       -5.3206317914
 H       -10.6884050174        5.2002664528       -5.2130221922
 H        -9.4339095819        3.8866258433       -4.7827891738
 H       -10.3861742059        8.5201527079       -0.8982429914
 H        -9.1621060911        7.8681390523        0.2426513878
 H       -11.9205622354        6.8593886785       -0.6384166016
 H       -11.6159199260        7.4509706943        0.8327048961
 H       -10.7579994443        7.0125625877        3.0568571989
 H       -10.9052971060        5.6627913085        4.2706597314
 H       -12.6781691408        6.7628273815        5.2456471136
 H       -12.8267924268        8.1617118101        4.3152465617
 H       -12.6471757325       10.7422033297        5.7900785611
 H       -14.0920659543       10.7482674198        6.8426658465
 H       -14.4446111546       10.1996822184        5.2443473415
 H       -13.0274435557        7.2596207559        8.9848382643
 H       -11.6639295388        6.3900231899        8.2848164894
 H       -13.1990464824        6.5780698739        7.4973925681
 H       -12.0048611644        9.8214931995        8.6715413350
 H       -11.1481188592       10.5003139617        7.2115758770
 H       -10.2749375663        9.3155584780        8.0420309614
 H       -13.8374617560        3.8266978021        0.4258117790
 H       -13.4197771114        5.4666961826       -0.2750833782
 H       -14.1260062277        5.4599964305        1.2593441557
 H       -11.1070420971        3.1192669614        2.6866955052
 H       -11.2868654281        2.6924718941        0.9998931206
 H       -12.5879224395        2.8995095524        2.1916531313
 H        -8.7579734246        6.5696664096       -5.0647178077
 H        -7.5074597382        6.3632265516       -3.7974692490
 H        -8.2851687842        7.8597589776       -3.8800172119
 H       -11.2138281193        7.9993126544       -2.5344783454
 H       -11.7193305377        6.8166694089       -3.7335316532
 H       -10.4491284436        8.1623492373       -4.0910080058
 H       -11.1777847706       -0.4002331990       -6.1860546944
 H        -9.8798977696        0.8674719544       -6.3805023443
 H       -11.4676623933        1.3095034811       -6.4129466369
 H       -12.8861753427       -0.6235482189       -4.8787430303
 H       -13.2748362218        1.2125767084       -4.6129862727
 H       -12.9878988128        0.1344834217       -3.3258087266
 H        -4.0487079177        2.6611105947       -2.0170484070
 H        -5.6549969300        3.1840534555       -1.6568464895
 H        -4.9067699513        3.5374804270       -3.1560454355
 H        -4.7698871626        2.3420407673       -4.9906145240
 H        -5.4285948079        0.7616877514       -5.0772199959
 H        -3.8489462935        0.9742011203       -4.5063117665
 H        -9.5851563897       -0.8251709870        2.7233046455
 H       -11.1158108811       -1.2819217009        2.0038739602
 H       -10.2716437106        0.2450230728        1.5237606610
 H        -7.8826549560       -2.6634585130        2.4449929600
 H        -7.6395905789       -3.2103358633        0.7268033097
 H        -9.1120571403       -3.6411402461        1.4319984831
 Na       -9.1571002429        2.7078066206       -0.6071019066
