117

 C       -11.8314484571       -2.0443120464        0.1426868079
 C       -10.2796893225       -2.0595037584        0.2480984550
 O        -9.5634118105       -2.6232480335       -0.5168031480
 C        -9.5032054300       -1.2059248693        1.4381107664
 C        -8.5476593212       -0.2743733601        0.5668928018
 O        -8.7846417749        0.8968488767        0.3769748922
 C        -7.3685342164       -1.0516070416        0.0162655075
 C        -6.1811945852       -0.1677151643       -0.5871104671
 C        -5.6968360136       -0.3981310506       -1.9913711738
 O        -5.3523336145       -1.4816371333       -2.4751666214
 C        -5.5312434444        0.8535992906       -2.8782809278
 C        -6.8936457966        1.4145124255       -3.0727856657
 O        -7.3379718479        2.2008860703       -2.2532057725
 C        -7.7511471558        0.7336607478       -4.1781118239
 C        -8.7665954760       -0.3537561045       -3.5975698928
 C       -10.2230494536       -0.4635080060       -4.0171050369
 O       -10.8942572976       -1.3954005455       -3.5843921558
 C       -10.8844227372        0.5855692683       -4.9940935409
 C       -10.7503689810        1.8239803330       -3.8865032773
 O       -10.4445526630        1.5781859137       -2.7206356517
 C       -11.4443943240        3.1630702193       -4.1880605839
 C       -10.4030157520        4.3611933819       -4.1213143564
 C       -10.3348293627        5.1852222552       -2.8427043418
 O       -10.6375205466        4.7462926423       -1.7629528971
 C        -9.9372287385        6.7387753066       -3.0066321462
 C        -8.9189882007        6.9078120602       -1.7442977361
 O        -7.7861118449        6.9363835538       -1.9826802416
 C        -9.4176281517        7.2468374981       -0.2718360521
 C       -10.8161685449        6.6620436755        0.2590658367
 C       -10.7487134036        5.2641331595        0.7857176234
 O        -9.7118847622        4.6370419177        0.9154814273
 C       -12.0353837062        4.6754699086        1.4392854778
 C       -12.6557715735        5.6631744094        2.6729693554
 O       -13.8552950949        5.8708497026        2.7040609897
 C       -11.7310157592        6.3658546656        3.6403250289
 C       -12.1192039387        7.8410223296        3.9881928899
 C       -11.2103441061        8.1766256720        5.1782831993
 O        -9.9640748863        8.0461668650        5.1031793261
 C       -11.9331149830        8.7369384813        6.6228374363
 C       -13.2972192350        9.4998301458        6.1748130975
 O       -14.3209856764        8.8239310036        6.3639585000
 C       -13.3023836256       10.9243486537        5.5153405030
 C       -12.0967369829        7.6321543542        7.6498426867
 C       -10.7821195779        9.7578193520        7.0161444717
 C       -13.0508614690        4.1457311443        0.3227424286
 C       -11.7322648607        3.3508727688        2.1495431355
 C        -9.0955966122        7.1963642062       -4.2875525649
 C       -11.1792663400        7.6817870339       -2.9040734071
 C       -10.1703535040        0.9809635777       -6.3880673413
 C       -12.4214113154        0.4175518151       -5.2151508482
 C        -4.6159569756        1.8564326598       -2.0468551027
 C        -4.9542901772        0.4157801281       -4.1904876764
 C       -10.3855220861       -0.5618140206        2.5150585421
 C        -8.7334439877       -2.2696793566        2.2294572748
 H       -12.3410214603       -2.1924225774        1.0297881709
 H       -12.0378979298       -2.9461518021       -0.4934949280
 H       -12.1467273853       -1.0807817743       -0.3145655983
 H        -7.6948718925       -1.9318050168       -0.6185901430
 H        -6.9076993745       -1.4938525312        0.8537481155
 H        -5.3145795724       -0.4207039509       -0.0094437364
 H        -6.2857901853        0.9383509648       -0.3434595976
 H        -7.1552456288        0.1629986986       -4.9030730295
 H        -7.9470775774        1.6354588964       -4.7068707229
 H        -8.6315132305       -0.3300666469       -2.4821920901
 H        -8.2703343093       -1.2147520451       -3.9603391240
 H       -12.1452355351        3.5293245936       -3.4816297638
 H       -11.9316136462        3.1491596315       -5.1594540624
 H       -10.6688828034        5.0104505487       -4.9569235998
 H        -9.4456335008        3.9320523418       -4.1390214753
 H        -9.3732080456        8.3273022202       -0.4420357739
 H        -8.5955772641        7.0397803893        0.4303656352
 H       -11.4068167398        6.7968762803       -0.6154332250
 H       -11.2158384354        7.2989626595        1.0494707756
 H       -10.7296996938        6.3945626696        3.2438391276
 H       -11.6581975944        5.7875748670        4.5393341645
 H       -13.2259773218        7.8973389703        4.1873584271
 H       -11.9081287021        8.5094941769        3.1418143528
 H       -12.5851258961       10.8236553298        4.6672660276
 H       -13.0484271762       11.7413790409        6.1711814194
 H       -14.3553722647       10.8711851753        5.1627245239
 H       -12.0845119176        8.0626090667        8.6552556183
 H       -11.3553681449        6.8751002803        7.5293504250
 H       -13.0379171536        7.0754961926        7.4336894538
 H       -11.1019567184       10.4155607619        7.8464882696
 H       -10.5330743822       10.4035659257        6.2005004888
 H       -10.0211536687        9.2163600566        7.5582998473
 H       -13.8391341956        4.8039368757        0.0711661780
 H       -13.4302004362        3.1940841792        0.6945970197
 H       -12.4487394064        4.1654493245       -0.6774432583
 H       -11.0758815615        3.5252171693        2.9313025055
 H       -11.1616087453        2.6231643919        1.4984186915
 H       -12.5438001584        2.6517387960        2.3870902094
 H        -7.9379107360        7.0712185895       -4.2063849017
 H        -9.3688005876        8.2181303783       -4.2970411154
 H        -9.3985366714        6.5590988132       -5.1805411851
 H       -11.4412337749        8.0330089333       -3.9183924019
 H       -10.9912035313        8.4035491404       -2.1169715955
 H       -12.0929725443        7.1548273492       -2.5968065660
 H        -9.5640251409        0.2131001091       -6.8134472286
 H        -9.4877630965        1.8005549465       -6.2120449368
 H       -10.9965057393        1.1851509273       -7.0996603215
 H       -12.7523104199       -0.3837131260       -5.9778592426
 H       -12.8475423854        1.3889794463       -5.5396609948
 H       -12.7963224721        0.1450689461       -4.3380906596
 H        -5.2680209922        2.6643429484       -1.6375223667
 H        -3.8428715583        2.2607404340       -2.6931832913
 H        -4.1781198125        1.3802015781       -1.1756008510
 H        -5.2581634522        0.8829237168       -5.0631245711
 H        -5.2292044592       -0.6792194527       -4.3790693343
 H        -3.8532976729        0.4769749263       -3.9430358592
 H       -10.0499916962       -0.7886461441        3.4908388323
 H       -11.3519633745       -1.0095871449        2.5376086019
 H       -10.5031912652        0.5634846779        2.4300490984
 H        -8.0620293532       -1.6644309159        2.7953117084
 H        -8.1090116311       -3.0128395136        1.7716394675
 H        -9.4239374177       -2.6420853563        3.0244793512
 Na       -9.4816656085        2.8061645038       -0.8499756388
