117

 C       -13.3967386078       -2.0199616910       -6.2840350172
 C       -11.9222076260       -2.6653379140       -6.0029522493
 O       -11.7639621727       -3.8299696383       -6.2795355897
 C       -10.7509194899       -1.8053327280       -5.3565823015
 C       -11.3251622990       -1.3516588511       -4.0027680095
 O       -11.9980036638       -0.3296794486       -4.0401115460
 C       -11.2240461544       -2.3002724982       -2.8259812527
 C       -12.1054531142       -1.8485045136       -1.6046013639
 C       -11.4803887641       -2.3503162922       -0.3213205809
 O       -11.2577069840       -3.5454195151       -0.1677343165
 C       -10.7356022654       -1.2930541970        0.6486132002
 C       -11.7075374058       -0.5267618823        1.6567737473
 O       -12.8973006717       -0.7665257362        1.7464965165
 C       -11.0974429533        0.5715164200        2.5154513431
 C       -11.9796074057        1.8152592051        2.6990687046
 C       -10.9751246493        2.9319226918        3.1637928880
 O        -9.8725625933        3.0080007035        2.6338055827
 C       -11.4609596055        3.9173984281        4.2372980181
 C       -11.8249431588        5.2204440356        3.4862853556
 O       -10.9514643830        6.0122233971        3.2730790123
 C       -13.2653141054        5.3844878368        2.9828850762
 C       -13.4682964235        4.9170677702        1.4585460667
 C       -12.1463123682        5.1399181485        0.6182267556
 O       -11.3149094200        4.2600992226        0.6750817810
 C       -11.9740378175        6.3067970929       -0.4216340965
 C       -10.4724758890        6.6303877795       -0.8281772629
 O        -9.5026871482        6.2116825132       -0.2625087160
 C       -10.3510941723        7.7040500727       -1.9478461241
 C        -8.9056912382        8.1358264915       -2.3528149563
 C        -8.3344966015        9.1452325058       -1.3177576260
 O        -9.0857132447        9.5652988857       -0.4697209474
 C        -6.7403719448        9.5591349788       -1.3034468356
 C        -6.1945690737        8.6389271424       -0.1410523743
 O        -6.0756489932        7.4555954339       -0.4791376678
 C        -6.1966602683        9.1158936661        1.2926890649
 C        -5.3827612169        8.0682288682        2.1558768984
 C        -6.2567235900        6.7710571474        2.0131086430
 O        -7.4673301635        6.7956483822        2.2565070974
 C        -5.4884119532        5.4041280665        1.9492541805
 C        -6.0315877655        4.6190394948        0.7111399624
 O        -7.1996788346        4.3160249763        0.5224006011
 C        -5.1821267696        4.4403890880       -0.5582051566
 C        -3.9727060007        5.5688833269        1.9490111623
 C        -5.9533533976        4.6497312167        3.1903550613
 C        -6.1095340833        9.2276792018       -2.6293099716
 C        -6.5004077307       11.0492204412       -0.9670133105
 C       -13.0569408343        5.8942638522       -1.5792816697
 C       -12.5456209740        7.5362220710        0.3127164891
 C       -12.4516158421        3.3105986132        5.2550348466
 C       -10.1772032537        4.2393147579        5.0426716814
 C        -9.6376540777       -2.0902404799        1.5340747766
 C        -9.9091740793       -0.3287558833       -0.1920987664
 C        -9.4490790948       -2.6656962053       -5.1698828145
 C       -10.6608877479       -0.5617200183       -6.3480294932
 H       -13.4499995561       -1.0748704329       -5.8817515114
 H       -14.0565976832       -2.5897267574       -5.7487950814
 H       -13.5894084892       -2.0387390123       -7.3589123712
 H       -10.1786842035       -2.4926860628       -2.5475206877
 H       -11.5109590172       -3.2581887504       -3.0920708601
 H       -13.0971885226       -2.3559401591       -1.7598723011
 H       -12.2086184595       -0.7373871869       -1.4290792537
 H       -10.1551479848        0.9240336473        2.0574654769
 H       -10.8910117358        0.1804448921        3.5802610698
 H       -12.7087906476        1.5200888024        3.4902004165
 H       -12.5324907099        2.0230368561        1.7884611057
 H       -13.6170897515        6.3757353099        3.0377081182
 H       -14.0411836459        4.7815021249        3.5572852295
 H       -14.4182944620        5.3499606734        1.0917097631
 H       -13.5811143404        3.8478695158        1.4220419851
 H       -10.7536520427        8.6334138014       -1.4590236521
 H       -11.1521041064        7.5884045717       -2.7228283691
 H        -8.8869797789        8.5155134154       -3.4378320481
 H        -8.3005777638        7.1869807842       -2.3861196854
 H        -7.2385115808        9.1982574172        1.4409342041
 H        -5.8418158932       10.1369783410        1.3913038033
 H        -5.4191059880        8.3877779405        3.1463534330
 H        -4.3664711223        7.9511167296        1.9324486696
 H        -4.1422175559        4.4105451207       -0.3101937834
 H        -5.4026696791        5.2144386517       -1.2351976659
 H        -5.2631574787        3.5217680580       -1.0552897226
 H        -3.4723056418        6.0292249219        2.8509107610
 H        -3.5368985024        5.9607406194        1.0447819879
 H        -3.6604651154        4.5446084737        1.9174080088
 H        -6.9661608287        4.8260511532        3.4519095694
 H        -5.2993915146        4.9588254480        4.0787337787
 H        -5.8362002586        3.6101513793        3.0039834615
 H        -6.5584034678        9.7145326859       -3.5051937823
 H        -6.3468663783        8.1471995485       -2.8988239366
 H        -5.0703897776        9.1717666129       -2.6048437743
 H        -5.4003654003       11.1982968540       -0.7502565256
 H        -7.1100527118       11.4843165207       -0.0936892740
 H        -6.5692470772       11.6782170960       -1.9019444167
 H       -14.0581696601        5.9312140530       -1.2091823768
 H       -12.9105823197        4.8627227529       -1.8733242712
 H       -13.0580907318        6.5660158199       -2.4049825744
 H       -11.9386665425        7.9362174372        1.0691656648
 H       -13.4517476891        7.4218163786        0.8502880937
 H       -12.7147298928        8.3773027996       -0.3600871484
 H       -13.4221254807        3.0671219001        4.8328415688
 H       -12.5935718125        3.8782672959        6.1178399131
 H       -12.0802911519        2.2976054835        5.5637703402
 H        -9.4806664911        3.4453640645        5.3025621990
 H       -10.3977104333        4.8114692857        5.9680745583
 H        -9.5634587768        5.0413616395        4.5032342660
 H        -8.9416769646       -2.6318929626        0.8911380016
 H       -10.1637628247       -2.7832688540        2.1685293816
 H        -9.0748867189       -1.4155287800        2.2262825607
 H       -10.4747171741        0.3626945337       -0.8369211243
 H        -9.2422095044       -0.8118931272       -0.8951606672
 H        -9.3988220932        0.3503293824        0.5044089207
 H        -9.6352775810       -3.5893334637       -4.6847432389
 H        -8.9228149775       -1.9475792812       -4.6119340460
 H        -8.9771704715       -2.8088924881       -6.1518872013
 H       -11.2429246026       -0.6285021606       -7.2411094588
 H        -9.6247083990       -0.4821162490       -6.7315118318
 H       -10.7785952205        0.4371879125       -5.9726788018
 Na       -9.2898819183        5.3873189398        1.7990964194
