117

 C       -12.2843446398       -2.1784894436        1.2783140488
 C       -10.7528281353       -2.1496405300        1.0492535846
 O       -10.1622872022       -2.9074351034        0.3919974796
 C        -9.8877144537       -1.0077805503        1.7738002940
 C        -8.7974347925       -0.3646892830        0.8165220121
 O        -9.1098620489        0.3872688354       -0.1222935281
 C        -7.3593124099       -0.7541582201        1.1698391127
 C        -6.3504842462        0.0468855889        0.3158831725
 C        -6.2521765952       -0.4790963695       -1.1078315484
 O        -6.7308279938       -1.5824726399       -1.3509631962
 C        -5.7173495896        0.3831007042       -2.3978291420
 C        -6.8235606469        1.3301677827       -2.7517459212
 O        -6.9747246148        2.3224276625       -2.0282397080
 C        -7.5577812275        1.1273221628       -4.0808881890
 C        -8.5222740603        0.0305760074       -3.6464501752
 C        -9.8223510104       -0.2590920379       -4.6224080010
 O       -10.3108324292       -1.3540796398       -4.7980142440
 C       -10.7949862720        0.9275733522       -5.0439317655
 C       -10.9945728981        2.0945244851       -3.9976969364
 O       -10.6900662364        1.8244087409       -2.8672540730
 C       -11.5819969469        3.5057099214       -4.3138909136
 C       -10.5369557738        4.6784362537       -4.4121591208
 C       -10.3399847495        5.2709347936       -2.9724693534
 O       -10.5133505440        4.5767754729       -2.0084838507
 C       -10.0175796445        6.8077030420       -2.8845445585
 C        -8.8604633109        6.8580590029       -1.7742645589
 O        -7.7421315173        6.6392083611       -2.0875676693
 C        -9.1744429132        7.0056692417       -0.2582158124
 C       -10.4665089215        6.4309913190        0.3417401752
 C       -10.5532848819        4.9813713384        0.6090455060
 O        -9.6629630142        4.1417198610        0.5335700639
 C       -11.7518043046        4.3522158500        1.3695132025
 C       -12.3743143452        5.6460169127        2.0777972664
 O       -13.0190218933        6.3163162224        1.2813831891
 C       -12.2624005543        5.8946332603        3.4875808745
 C       -12.3945645443        7.4001886369        3.8968458625
 C       -11.2854748109        7.7657906054        5.0415923549
 O       -10.1945301592        7.1842127414        5.0842720773
 C       -11.4783180155        9.0062943129        5.9585086541
 C       -12.6745735347        9.8991711196        5.5836921728
 O       -13.7557203272        9.2505507754        5.5973073582
 C       -12.6278505816       11.4729421527        5.4302759159
 C       -11.6685797159        8.7928888567        7.4501682951
 C       -10.0847201450        9.9537850560        5.5640096612
 C       -12.8684609070        3.8668433877        0.3880669401
 C       -11.3984778561        3.4015209780        2.4297153548
 C        -9.6044641576        7.3972136323       -4.3332159664
 C       -11.3322266535        7.6568068296       -2.4369536443
 C       -10.4197527272        1.2745327501       -6.5864045762
 C       -12.1651819830        0.2950854038       -5.0319748441
 C        -4.4663625612        1.2208845737       -1.9542578827
 C        -5.0943539769       -0.4864823325       -3.6256330857
 C       -10.9155323583        0.0564354965        2.3199970894
 C        -9.3065682379       -1.8812392112        2.9191476742
 H       -12.4842439285       -2.6870989440        2.2278864852
 H       -12.8265470290       -2.7907393948        0.5681722180
 H       -12.7116532060       -1.1842965068        1.0801170938
 H        -7.1123660268       -1.8069240788        1.0219184530
 H        -7.2962069534       -0.4391011258        2.2451508934
 H        -5.2984771528       -0.1225169970        0.8274807490
 H        -6.6264712133        1.0767670017        0.2771869525
 H        -6.9223175009        0.9628275558       -4.9551071254
 H        -8.2515038133        2.0574955025       -4.4683973251
 H        -9.1550293640        0.2347871801       -2.8080032536
 H        -7.9238098077       -0.8945259454       -3.4266853688
 H       -12.3457947709        3.7265445419       -3.5778674477
 H       -12.1583068474        3.6061238044       -5.2419325682
 H       -11.0177801765        5.3775271755       -5.0920835440
 H        -9.5990414698        4.4711377977       -4.9057785221
 H        -9.0634417971        8.0317220249        0.0927724149
 H        -8.3099337610        6.4996842120        0.1953927640
 H       -11.2714739862        6.6393612711       -0.4015711055
 H       -10.5017888189        7.1359807091        1.1629532477
 H       -11.2795769973        5.5499799157        3.9586054548
 H       -13.0294938187        5.3443121322        3.9790712178
 H       -13.4827621423        7.7295760584        4.1224695955
 H       -12.1248063915        7.9728593545        3.0050229306
 H       -12.2333128244       11.6760509236        4.4800404448
 H       -12.2518491514       11.9267484719        6.3737805278
 H       -13.6649304295       11.7667803415        5.3994881408
 H       -11.1201965231        9.6330590470        7.8800862003
 H       -11.0976554853        7.9856989613        7.9390449354
 H       -12.7428007886        8.8669219713        7.6675983921
 H       -10.1172403917       10.8640652018        6.1130980184
 H        -9.9674717817       10.1687939271        4.5434557708
 H        -9.1546592442        9.4328224799        5.9364335769
 H       -12.3635085495        3.6771932617       -0.4759118261
 H       -13.6155176454        4.6570055043        0.2542347119
 H       -13.3375196825        2.8952498521        0.8131972645
 H       -10.8931238649        3.8719238088        3.3183834386
 H       -10.6542804755        2.6529808888        2.1659376530
 H       -12.3284565441        2.9245440278        2.8787464258
 H        -8.5756111422        7.0421372964       -4.4379177747
 H        -9.7531579494        8.4278448806       -4.3732980420
 H       -10.3073877173        6.8378970473       -5.0159668259
 H       -11.6998540042        8.1949669895       -3.3050130850
 H       -11.2359463601        8.5561848357       -1.7809932192
 H       -12.0885881294        6.9322155169       -2.1916646871
 H       -10.2283898801        0.3511240795       -7.1359944248
 H        -9.4843848861        1.8252030766       -6.6025421410
 H       -11.1950817069        1.8439747015       -7.1323118355
 H       -12.3296309763       -0.3848277844       -5.8655916385
 H       -12.9932275567        1.0197667103       -5.2639268318
 H       -12.2251694592       -0.0619944937       -4.1089877448
 H        -4.7456375106        1.5971843259       -0.9771953684
 H        -4.0112800393        2.0425015581       -2.6024754446
 H        -3.7388715057        0.4281690196       -1.9279979015
 H        -5.1848922348        0.0662912406       -4.5920251550
 H        -5.6309852266       -1.4629667385       -3.6038436550
 H        -3.9775478357       -0.6086255957       -3.4651314550
 H       -10.4361741042        0.5253662498        3.2095898060
 H       -11.7476886899       -0.5100998289        2.6612335364
 H       -11.2726569916        0.7847431221        1.6776760531
 H        -8.5024152120       -1.4727918519        3.5120402219
 H        -9.0019193226       -2.8277745563        2.3785834068
 H       -10.0220624280       -2.3008921846        3.5763734930
 Na       -9.2915004870        2.5328783725       -0.9756758314
