117

 C       -12.2248977770       -2.2514562103        1.3389849510
 C       -10.7623654239       -2.1939136892        0.9891956123
 O       -10.2409342087       -3.1063236319        0.3586211471
 C        -9.9817863912       -1.0931645961        1.8665802344
 C        -8.9282500765       -0.3487313448        0.9941239093
 O        -9.3066036644        0.2834353985        0.0176735347
 C        -7.4066172006       -0.5516139732        1.2279042112
 C        -6.3386821724        0.1775058184        0.3655597945
 C        -6.3492856972       -0.4389846045       -1.1088212229
 O        -6.9214828668       -1.4915283118       -1.2997632453
 C        -5.6023692040        0.2636221500       -2.2720435070
 C        -6.6412382389        1.3913604526       -2.7312910520
 O        -6.9458748072        2.2534034241       -1.9478454043
 C        -7.6487846674        1.1643734103       -3.9007821017
 C        -8.7095954859        0.1176228720       -3.5622861715
 C        -9.9022538510       -0.1490564278       -4.6387181734
 O        -9.9323628268       -1.3608451873       -4.9355232585
 C       -10.8349916949        0.9660088746       -5.2128529101
 C       -10.8340276290        2.0851177534       -4.1085705521
 O       -10.5811961647        1.7790169341       -2.9323321718
 C       -11.6682001784        3.3368883058       -4.3239742136
 C       -10.6925050025        4.5912815429       -4.4684945795
 C       -10.3854499407        5.2488175439       -3.0498345205
 O       -10.4573442907        4.5869756109       -2.0452969608
 C       -10.0525956141        6.8432677520       -2.9037890664
 C        -8.7473164607        6.7719291080       -1.7760626869
 O        -7.6529901139        6.4813279930       -2.1590135329
 C        -9.0933749045        6.9145510975       -0.2545103835
 C       -10.3330308625        6.3865969945        0.3238466166
 C       -10.4558486917        4.9094337838        0.6004925542
 O        -9.4806747812        4.1777917308        0.4130535191
 C       -11.7913688726        4.3601438333        1.4155869788
 C       -12.4921891034        5.7452895946        2.0511475643
 O       -12.8648015665        6.5760575252        1.1943775799
 C       -12.3466675256        5.8642752207        3.5953602261
 C       -12.4194596646        7.3316585472        4.1117690522
 C       -11.2829305155        7.7674485418        5.0450246416
 O       -10.3065419815        6.9771412794        5.0087909584
 C       -11.4328289232        9.1762205729        5.7608076655
 C       -12.6925694110       10.0133919496        5.3988326509
 O       -13.7261320663        9.3831077087        5.4404291335
 C       -12.5252574278       11.4851227974        5.4147453870
 C       -11.4755500104        9.0506424423        7.2836353090
 C       -10.0318055956        9.8798052269        5.3607481937
 C       -12.8446204071        3.7861483423        0.3526877949
 C       -11.3122788409        3.3547622780        2.4258172792
 C        -9.5991258804        7.4763049703       -4.2746715598
 C       -11.3130912934        7.5999201226       -2.4806902098
 C       -10.5692759346        1.4484766691       -6.6199712924
 C       -12.3611561720        0.4397432326       -5.1177979049
 C        -4.2888513339        1.1051698232       -1.6332351615
 C        -5.3555230506       -0.7134602936       -3.4193101238
 C       -10.7962104924        0.1895083595        2.4144435824
 C        -9.4191642291       -1.8050837805        3.1117026629
 H       -12.1998956754       -2.2006900385        2.3636606365
 H       -12.8198195953       -3.1990365313        1.1386795866
 H       -12.7888242268       -1.4825281632        0.7573880949
 H        -7.1713773240       -1.6317922547        0.8840123560
 H        -7.2180905015       -0.4352217146        2.2467707643
 H        -5.4143216667        0.0213437200        0.9494037771
 H        -6.5928689164        1.2241224506        0.2357434917
 H        -7.2192839708        1.0318305532       -4.8845146186
 H        -8.2647139049        1.9821105908       -4.0584856255
 H        -9.3012052483        0.1212455060       -2.6242232972
 H        -8.2560559976       -0.8762399404       -3.5612250014
 H       -12.5210759149        3.4803627351       -3.6169652146
 H       -12.2337674872        3.2645398971       -5.3110302690
 H       -10.9287515455        5.2504307739       -5.3918929702
 H        -9.6623469234        4.3164490060       -4.6921902863
 H        -8.9815365643        7.9352963956        0.0613241481
 H        -8.2774048098        6.3898739673        0.3093123376
 H       -11.1760354074        6.8896876183       -0.1810427476
 H       -10.1641138054        6.9573747350        1.2319455869
 H       -11.3003518218        5.4169755161        3.9101153331
 H       -13.1010820936        5.3614798704        4.2095039318
 H       -13.3851808350        7.4442904845        4.7065782259
 H       -12.5353285984        7.9737617763        3.3024104702
 H       -12.1522503311       11.7547575600        4.4621648555
 H       -12.0538582077       11.6968088389        6.3213512881
 H       -13.5226350645       11.9561154072        5.4981090617
 H       -10.6168427837        9.4402604969        7.8345640034
 H       -11.2427325850        8.0142273442        7.4636308657
 H       -12.5226417252        9.4114863196        7.6623765428
 H       -10.0168881819       10.8365356471        5.8565438040
 H        -9.7108735231       10.0156104799        4.3406404476
 H        -9.2852514318        9.2625696179        5.7610614244
 H       -12.5604943348        4.3112236629       -0.5326571447
 H       -13.9010095927        3.9043383020        0.7126533762
 H       -12.6065226900        2.7223498649        0.1888229775
 H       -10.7964815303        3.7590818669        3.2523111315
 H       -10.4337288511        2.8227293763        1.9364487862
 H       -12.0356352803        2.6409739560        2.9402698597
 H        -8.5495278602        7.4165993405       -4.3429047478
 H        -9.9504215494        8.4766011184       -4.2951938601
 H       -10.1378034130        6.9708421759       -4.9610527891
 H       -12.0279780140        7.8499124738       -3.2647220272
 H       -11.0064620258        8.6019986088       -2.2706518966
 H       -11.8417755385        7.0930598405       -1.7415320855
 H       -10.7904709672        0.6612350631       -7.3130341435
 H        -9.5220579917        1.6816962883       -6.7393888515
 H       -11.1334974090        2.3872264435       -6.9230991829
 H       -12.5498396366       -0.2092970624       -5.9835899272
 H       -13.1588027012        1.1551869983       -5.2242531344
 H       -12.3746343691       -0.0089682899       -4.1306560323
 H        -4.9084648512        1.9332477594       -1.2238925779
 H        -3.5139885824        1.4637197223       -2.3681861980
 H        -3.7142858545        0.5152552288       -0.8842556373
 H        -5.4891188641       -0.1273894034       -4.2612783809
 H        -6.1166043261       -1.5484668686       -3.3268764683
 H        -4.2892576611       -1.0547287187       -3.5242904926
 H       -10.1992170464        0.5088017751        3.2149732394
 H       -11.7921619729        0.0056230957        2.6839314090
 H       -10.8546482278        1.0275143840        1.6399786218
 H        -8.6220323295       -1.3129986206        3.5846695200
 H        -9.2843453297       -2.8591281327        2.9740405199
 H       -10.2090314603       -1.8478301811        3.9124226844
 Na       -9.4242979928        2.4813074666       -1.0437601109
