117

 C       -12.3729270190       -2.3549557608        1.3686212429
 C       -10.8026674770       -2.2467747279        1.1722840577
 O       -10.2430775828       -3.0079633221        0.4052383748
 C        -9.9197835010       -1.1171561415        1.9943905635
 C        -8.9172578762       -0.4419181752        0.9500070766
 O        -9.4517964414        0.3019708175        0.1448555692
 C        -7.3853369054       -0.4965561185        1.3037439903
 C        -6.5200009662        0.2610644447        0.3500182476
 C        -6.4705948498       -0.4334701259       -1.0534966963
 O        -7.0989432031       -1.4158466591       -1.2613617549
 C        -5.6505544691        0.3245994698       -2.2072335861
 C        -6.7761790645        1.3352701945       -2.4977281005
 O        -6.9498901720        2.2736153179       -1.7489532525
 C        -7.7009973713        1.1959167578       -3.7489524101
 C        -8.7107443003        0.0654017673       -3.5505412524
 C        -9.7479135383       -0.2508729762       -4.6333661055
 O        -9.7821325543       -1.2375927968       -5.2824095314
 C       -10.8833766260        0.9364439357       -5.1380553357
 C       -11.0278262304        2.0202885101       -4.0994006617
 O       -10.4909179801        1.8284802113       -3.0097407143
 C       -11.6352439853        3.3781765783       -4.3977482283
 C       -10.7300333081        4.6016737813       -4.4827230785
 C       -10.4526204539        5.2369836142       -3.1794128119
 O       -10.4764438095        4.6200658241       -2.0897574026
 C       -10.0398900069        6.7611941099       -2.9483432864
 C        -8.8753030009        6.5053137842       -1.9250465668
 O        -7.7080080337        6.4348360303       -2.3693955713
 C        -8.9092494011        6.8739914950       -0.3542316615
 C       -10.1606509133        6.4477195062        0.5393610744
 C       -10.3292841631        4.9042782373        0.7171256204
 O        -9.4260320063        4.1521694963        0.3682118140
 C       -11.6674316877        4.4956687523        1.3404527643
 C       -12.4063102668        5.7986567727        1.9807323845
 O       -12.8766026994        6.7768544242        1.4483727314
 C       -12.4736676950        5.8778315108        3.5312506601
 C       -12.7244842934        7.2518652001        4.1966420338
 C       -11.3441556453        7.7191926435        4.8944135418
 O       -10.4175857324        7.0178988453        5.1600163103
 C       -11.2055640836        9.1388516305        5.5453726553
 C       -12.6851201992       10.0192471095        5.3285790341
 O       -13.7702220425        9.6373309145        5.1803774432
 C       -12.4642281561       11.5574278318        5.3490767241
 C       -11.1647834503        9.0801826394        7.1822285899
 C        -9.9245236207        9.8562070324        5.1474827001
 C       -12.6488131393        3.7271064904        0.3639002583
 C       -11.2683474866        3.3482381226        2.3413170108
 C        -9.3631253044        7.5004889203       -4.1504761241
 C       -11.2531632955        7.4769450544       -2.4993584150
 C       -10.6132916878        1.5682384908       -6.5129384273
 C       -12.4404862315        0.4297059157       -5.2282891745
 C        -4.3083642110        0.8814728251       -1.5350075810
 C        -5.3845811991       -0.8501769355       -3.1615301958
 C       -10.7612706962        0.1051193938        2.3951657736
 C        -9.4609043794       -1.7659335017        3.2676034476
 H       -12.6937677198       -1.9555915811        2.3671756513
 H       -12.7545805583       -3.3587355339        1.3773853138
 H       -12.7980606233       -1.9858011344        0.4629457442
 H        -6.9422410306       -1.5022190008        1.3901242238
 H        -7.3561479833        0.0386439691        2.2512864152
 H        -5.6065713831        0.3411597444        0.7887338342
 H        -6.9903457055        1.2782999335        0.1794604473
 H        -7.0561974064        0.9301694074       -4.5666524114
 H        -8.2757125668        2.0168794849       -3.9701167464
 H        -9.3459762226       -0.0088000480       -2.6283732285
 H        -8.1594274056       -0.8562655083       -3.5141365698
 H       -12.4143168402        3.6724748505       -3.6375392138
 H       -12.3201781623        3.3547709117       -5.3037255552
 H       -11.3320142722        5.3766237503       -5.0305413568
 H        -9.7389849043        4.7144600147       -5.0315320670
 H        -8.7631156228        7.9818583228       -0.4080814587
 H        -7.9951143641        6.5085097605        0.1061669614
 H       -10.9932590458        6.8596003498        0.0165218620
 H       -10.0519387030        7.1006365975        1.4074095670
 H       -11.5027303658        5.5966030912        3.9404803671
 H       -13.2203016228        5.2081610082        4.0988151159
 H       -13.4383265648        7.2320183089        4.9133676531
 H       -13.0594459642        8.0002428350        3.4661026359
 H       -12.0474427419       11.8203479757        4.3478306205
 H       -12.0103789293       11.7976868196        6.2610726468
 H       -13.4225299674       12.0471179413        5.3589935776
 H       -10.2474507426        9.2900166023        7.7430860193
 H       -11.2292295682        8.0158160159        7.4343340511
 H       -12.0385617784        9.6721466373        7.4551765241
 H        -9.9261662796       10.8486791167        5.6193857269
 H        -9.8243441014       10.0471328730        4.0207337856
 H        -9.0432233217        9.2332435624        5.2380309812
 H       -13.3457214699        4.4732585512       -0.2564232737
 H       -13.0968819489        2.9398018036        0.9710182517
 H       -12.0268391831        3.2749346743       -0.3337332971
 H       -10.6900766556        3.6342216090        3.2171577488
 H       -10.5155394927        2.7601564058        1.7661913817
 H       -12.0289431963        2.7577014105        2.7687316045
 H        -8.3378684210        7.3753579735       -4.1145673807
 H        -9.5826941550        8.5534024589       -3.8745163080
 H        -9.9795501037        7.3597472947       -4.9871209706
 H       -12.0623609090        7.5779573415       -3.1870019928
 H       -10.9902289532        8.4868471740       -2.4349798792
 H       -11.6786297574        7.0879691720       -1.5867517424
 H       -11.0765289103        0.9157020849       -7.2591666914
 H        -9.5313960844        1.6036080909       -6.7666607596
 H       -10.9180982144        2.6044669106       -6.6349791422
 H       -12.4717457528       -0.2605471922       -6.0573654534
 H       -13.0719049266        1.2362959780       -5.5373530579
 H       -12.8619571425        0.0482273529       -4.1720114810
 H        -4.3598477549        1.9734654323       -1.5897385747
 H        -3.6120149444        0.5426250164       -2.2338209229
 H        -3.9676743302        0.4890994979       -0.5366365987
 H        -5.1833052499       -0.5224053209       -4.1955391805
 H        -6.3009480356       -1.3858873976       -3.0442786892
 H        -4.5759006124       -1.4237893090       -2.8855915162
 H       -10.1314363983        0.8142459563        2.8828629133
 H       -11.6403270282       -0.2158331863        3.0080325167
 H       -11.1988596541        0.5138690547        1.4718085694
 H        -8.8270848792       -1.0946661448        3.8574182217
 H        -9.1898463682       -2.7640343036        3.2639813793
 H       -10.3499671623       -1.7947826915        3.9459188678
 Na       -9.4575923044        2.3898846607       -1.1483014904
