117

 C       -12.3438770312       -2.4929687475        1.5323608387
 C       -10.8775206683       -2.2566195423        1.2315397565
 O       -10.1535862706       -2.9184696340        0.5041041497
 C       -10.1896086741       -0.9924551902        2.1406099947
 C        -9.0854814282       -0.3210449111        1.2887855780
 O        -9.4823513427        0.1618476917        0.2222928489
 C        -7.6097631297       -0.4646428318        1.6749914145
 C        -6.7070354398        0.2676754412        0.6041590893
 C        -6.7509604539       -0.5169790894       -0.7258624001
 O        -7.4727120618       -1.4465965848       -0.9413520706
 C        -5.7826225335        0.1384504474       -2.0055101462
 C        -6.9071863589        1.1122369937       -2.4387947180
 O        -7.0998987697        2.0946975626       -1.7168375360
 C        -7.8005822124        1.0442517023       -3.7083597404
 C        -8.7558486581       -0.1634871844       -3.7392292516
 C        -9.7346689086       -0.0608984492       -4.8819480439
 O        -9.6553337706       -0.9012051852       -5.8051446902
 C       -10.8308123788        0.9978559594       -5.1504980677
 C       -11.0908688679        2.1189670643       -4.1004673398
 O       -10.6952162745        2.0095286051       -2.9383077084
 C       -11.7771830963        3.4152485804       -4.4644009204
 C       -10.9255929545        4.7054240643       -4.6271892325
 C       -10.4774899513        5.2632602728       -3.2200133623
 O       -10.5664210593        4.5043873669       -2.3119382063
 C        -9.9569336564        6.6606173041       -2.9859216997
 C        -8.6047643768        6.4962104772       -1.8939531754
 O        -7.6472675580        6.0426572020       -2.4025724667
 C        -8.5334556151        6.9548944084       -0.3723045244
 C        -9.7139999091        6.5969687926        0.5292399856
 C       -10.0662445518        5.1357980717        0.7357529526
 O        -9.4334565652        4.1667513654        0.3024063333
 C       -11.5327074661        4.5705016738        1.4696744519
 C       -12.3391865281        5.7758573533        2.2294360818
 O       -12.7356553244        6.6862122192        1.4678380594
 C       -12.5884710121        5.7288371074        3.6826100561
 C       -12.9491764451        7.1402197933        4.2181205400
 C       -11.5128718433        7.7283905261        4.9751320388
 O       -10.5641743957        6.9520952039        5.1515694489
 C       -11.2734842205        9.1729722748        5.3798862045
 C       -12.4174872091       10.1929905757        5.1726660250
 O       -13.5451393679        9.8796433528        4.7528431002
 C       -12.1972277945       11.7195021044        5.2303992542
 C       -10.8851921948        9.1037845906        6.9672068232
 C       -10.1301724939        9.7707478701        4.4244614788
 C       -12.3996713060        4.2389196539        0.2254968021
 C       -11.1091208940        3.5370572188        2.5687069193
 C        -9.4797751344        7.3338766439       -4.3415554048
 C       -11.1832247701        7.4131784240       -2.4532582800
 C       -10.3333761572        1.5432143864       -6.5279018459
 C       -12.1046137470        0.1548331983       -5.2408984392
 C        -4.4253483093        0.9398657823       -1.4613882487
 C        -5.5979198354       -0.8312860524       -3.1575012566
 C       -11.2684633529       -0.0388353953        2.6836646312
 C        -9.3675229681       -1.7581657507        3.2729217317
 H       -12.7447232292       -1.9003216939        2.2646478912
 H       -12.4430246910       -3.5508617919        1.8838425136
 H       -12.8773142724       -2.6123866262        0.5783835331
 H        -7.4740864568       -1.5676277625        1.6728101431
 H        -7.4457677432       -0.0255870734        2.6793478695
 H        -5.5839408241        0.4211931250        0.8904727297
 H        -7.2007213764        1.1963630219        0.4617322481
 H        -7.0093752253        0.8746157716       -4.5229527464
 H        -8.4662431315        1.9685364581       -3.8863354049
 H        -9.3324981365       -0.2923464642       -2.8200270751
 H        -8.2876792381       -1.1641682856       -3.8884990507
 H       -12.4882018185        3.5313518656       -3.6707652799
 H       -12.3754405924        3.1908267547       -5.3272085631
 H       -11.3363825376        5.5038736077       -5.2253964781
 H       -10.0780081035        4.5038989327       -5.2308520422
 H        -8.3881364338        8.0242467780       -0.5416138866
 H        -7.6149864517        6.5619095982        0.0998013950
 H       -10.6327743196        7.1979086297        0.2829103043
 H        -9.4595760238        7.0214378922        1.5097152413
 H       -11.6909262228        5.4229296107        4.2423472140
 H       -13.2717001663        4.9891838157        3.8589553815
 H       -13.6430305873        7.1659869732        5.1927247080
 H       -13.4311056049        7.7723130038        3.4723433640
 H       -11.7274339265       11.9722792536        4.3161798302
 H       -11.7529844661       11.9801663585        6.2166734768
 H       -13.1640605124       12.2835346759        5.1309023612
 H        -9.9711101840        8.5653920680        7.0436749444
 H       -11.5616638012        8.4849993734        7.5130475707
 H       -10.6164442510       10.1266186545        7.2761318897
 H        -9.7680279928       10.8002046270        4.7485318750
 H       -10.5369323469        9.9320041936        3.4127899901
 H        -9.3553399674        9.0865924542        4.0717148525
 H       -13.3634864400        4.0190964884        0.5406983451
 H       -11.9515129596        3.4839808191       -0.4449680542
 H       -12.5968815808        5.2253334570       -0.2932636534
 H       -10.3786930534        3.9953003912        3.2114487520
 H       -10.6823941120        2.6107050893        2.2126925524
 H       -11.9348722733        3.4096323934        3.2992170339
 H        -8.7749615223        6.5880300907       -4.8819506107
 H        -8.7814726171        8.1138526787       -3.9623037780
 H       -10.3480633652        7.9195701075       -4.7430489143
 H       -11.9369154448        7.7307980005       -3.2079590972
 H       -10.8970191124        8.4175074229       -2.0046876078
 H       -11.7344234193        6.8523352888       -1.6731557410
 H       -10.5067472318        0.7263037001       -7.2145952688
 H        -9.3275111032        1.8896704267       -6.6493011127
 H       -10.8831337447        2.4582836586       -6.8203996429
 H       -11.8134663558       -0.8164133215       -5.7283302435
 H       -12.8721417767        0.6698683104       -5.8757244556
 H       -12.5792894513        0.0210486510       -4.3051059451
 H        -4.3095852929        1.8920535512       -1.9791244867
 H        -3.5403392082        0.3037082443       -1.6723143796
 H        -4.5980034711        1.0536451861       -0.4390928043
 H        -4.7224229149       -0.5061361875       -3.6038686986
 H        -6.4664741225       -0.8898000690       -3.8526723214
 H        -5.3655874886       -1.8736309190       -2.7829047186
 H       -10.7604452675        0.9333223389        2.8361904061
 H       -11.5914610199       -0.3924944433        3.6360558348
 H       -12.1558382887        0.0732409347        2.0151013453
 H        -9.0877248175       -1.0727028528        4.0476015139
 H        -8.5225829286       -2.3892950452        2.8866425754
 H        -9.9324935685       -2.4856017076        3.8482922650
 Na       -9.2783253247        2.3741036929       -1.0320077603
