117

 C       -12.2986740753       -2.9745991209        1.6129640347
 C       -10.8675008591       -2.3046567156        1.3987946150
 O       -10.1079703038       -2.7313344259        0.6032202162
 C       -10.3038921624       -1.1642783629        2.3394425488
 C        -9.3668419554       -0.2575890233        1.2991658573
 O        -9.8468670237        0.5446340905        0.5269171576
 C        -7.8083465139       -0.3043843299        1.7387410726
 C        -6.7495891513        0.0262562867        0.7542191276
 C        -6.8811047664       -0.5763376195       -0.5999357383
 O        -7.4244767825       -1.6742564222       -0.7458842905
 C        -6.1383458117        0.1520421159       -1.8408920153
 C        -7.2243054875        1.1493999709       -2.4203690076
 O        -7.3383602767        2.1500011078       -1.7336888350
 C        -7.7568135667        0.8996378289       -3.8218156256
 C        -8.9589078166       -0.0833637194       -3.7624882140
 C        -9.5414529256       -0.0511126168       -5.1462158312
 O        -9.1874855468       -0.8182602843       -5.9472545472
 C       -10.7126712947        1.0619515522       -5.4013177055
 C       -10.9786110165        2.0342789877       -4.1637482554
 O       -10.8515724043        1.7980750124       -3.0036161549
 C       -11.7631971014        3.3642597539       -4.5312543925
 C       -10.9908368100        4.6832885074       -4.4272443486
 C       -10.5293581199        5.0874763949       -3.0790331221
 O       -10.5388219599        4.2193476087       -2.1951550892
 C        -9.8549093866        6.4262986709       -2.9829899121
 C        -8.6479388730        6.2968364880       -2.0574693119
 O        -7.6955083950        5.6776246383       -2.4617068751
 C        -8.6033857067        6.9775286165       -0.6509283098
 C        -9.7002481423        6.8082935056        0.4575827529
 C        -9.9952536695        5.2735312665        0.6878690621
 O        -9.1652886485        4.4569501429        0.3964993536
 C       -11.2404746542        4.8059386843        1.5177920869
 C       -12.0378984116        6.0349961054        2.2267762274
 O       -12.4180744530        7.0034035519        1.6428385020
 C       -12.7755924162        5.9015708546        3.6165408330
 C       -13.0011028649        7.1799444342        4.3520032604
 C       -11.5852461838        7.5981687916        4.8351445569
 O       -10.6641159719        6.9005270247        5.0768155870
 C       -11.2213931569        9.2794845874        5.0370255708
 C       -12.3850875295       10.2520503114        4.8234177356
 O       -13.5407999438       10.0368122831        4.4874813180
 C       -11.9981392719       11.7181274224        5.3016002366
 C       -10.5504468210        9.5233791862        6.4301066304
 C       -10.0939243983        9.4617861244        3.9425467110
 C       -12.2447056204        4.2979413689        0.3847727782
 C       -10.9036141982        3.5742324420        2.3533969512
 C        -9.4307876640        7.1797423030       -4.3417707534
 C       -10.7517899107        7.4849044639       -2.2107360372
 C       -10.5248115006        1.8527075188       -6.7019946480
 C       -12.0460573099        0.3863979077       -5.4212960307
 C        -4.8596388315        0.9647468390       -1.4548433444
 C        -5.4898497465       -1.1931340226       -2.7623618427
 C       -11.3550142699       -0.1298088359        2.9428992277
 C        -9.7138114144       -1.9506317322        3.5368308389
 H       -12.8238810856       -2.2729682657        2.3913619169
 H       -12.3481400629       -3.9919629839        1.9691590577
 H       -12.8744761700       -3.0621303945        0.6995969534
 H        -7.6646435121       -1.3348434021        2.0199604372
 H        -7.5829344636        0.3032669290        2.6322392043
 H        -5.9242141466       -0.4605491060        1.1494304844
 H        -6.4860009762        1.1245222825        0.7179226747
 H        -7.0685661037        0.4366959228       -4.4314270525
 H        -8.1234288536        1.8579809605       -4.1282155891
 H        -9.4717584310        0.1542461194       -2.8001614201
 H        -8.5823562027       -1.0984378407       -3.6093986208
 H       -12.5908813851        3.3188879892       -3.7551975282
 H       -12.2064545196        3.2277891981       -5.5586055885
 H       -11.5447997738        5.5430056873       -4.8431174308
 H       -10.1937900151        4.7725131312       -5.2242589144
 H        -8.2485455534        7.9998715849       -0.8786142812
 H        -7.7907132334        6.3921154338       -0.2367285051
 H       -10.4735827906        7.5328015475        0.3043262076
 H        -9.2974456053        7.2987711716        1.3780707325
 H       -12.3407518424        5.2840774050        4.4269959856
 H       -13.8392883262        5.3984420909        3.3771432064
 H       -13.7031723126        7.2207200751        5.0597716522
 H       -13.2211208821        8.0230692754        3.6769628386
 H       -11.5987689324       12.3264632790        4.4667755107
 H       -11.4148916260       11.7036150634        6.2077485289
 H       -12.9407136583       12.1369607496        5.4402521882
 H       -10.5007034524        8.5741595891        7.0772328226
 H       -11.3190454777       10.1748526792        6.9263155158
 H        -9.5216683028        9.8276292876        6.3277131634
 H        -9.6479535529       10.3956092332        3.9305340225
 H       -10.3168521028        9.3043255598        2.9364260218
 H        -9.3210863540        8.7396177351        4.1287140325
 H       -11.9804669501        3.2323313124        0.2023556369
 H       -12.1936222952        4.8470856703       -0.5707675344
 H       -13.2623457766        4.1440283402        0.7966990791
 H       -10.4589907009        3.6621234028        3.4171095636
 H       -10.2298119842        2.9409457544        1.7369613247
 H       -11.8634185224        3.0476800609        2.4438731781
 H        -8.9662094815        6.3728345175       -4.7364885847
 H        -8.7461595253        7.9355999193       -4.3247268482
 H       -10.3180685689        7.5424519569       -4.7918419650
 H       -11.6271022374        7.7942024200       -2.7621347345
 H       -10.2256785311        8.3615813946       -1.8522824396
 H       -11.2066075414        7.0261865294       -1.3141071325
 H        -9.6517630859        1.5253664157       -7.2662741292
 H       -10.3230541848        2.8940769771       -6.4562050273
 H       -11.3644384135        1.9894875630       -7.3209876868
 H       -12.0585369016       -0.2962750943       -6.2776394343
 H       -12.7798162777        1.1900932169       -5.2620854226
 H       -12.1882204976       -0.2268404191       -4.5366185125
 H        -4.1078830080        0.7629777571       -2.2090979104
 H        -4.5106987201        0.4061241545       -0.5972544846
 H        -5.1192294930        2.0256970688       -1.2081118743
 H        -4.3553511824       -1.1035579518       -3.0280779845
 H        -6.1307040158       -1.4701700577       -3.5586741982
 H        -5.5009319887       -1.9783938879       -2.0424482892
 H       -10.9865055326        0.2005486781        3.9064287112
 H       -12.3749893047       -0.5622682164        3.1210882433
 H       -11.3897015086        0.6645942812        2.2806684483
 H        -9.0277587885       -1.3552075192        4.1712597968
 H        -9.1564099244       -2.7991772913        3.1867481226
 H       -10.4721243478       -2.2760415701        4.2415938206
 Na       -9.3554188080        2.4052963704       -0.8445910475
