117

 C       -11.4561571248       -3.5694728496        1.8643033080
 C       -11.0780160380       -2.1323456174        1.5818774379
 O       -10.7479334764       -1.8227855579        0.4786296225
 C       -11.0112636476       -1.0247050987        2.7573235468
 C        -9.9302256565       -0.0550863752        2.0433155943
 O       -10.2829221944        0.9810727077        1.5067018481
 C        -8.4816697129       -0.4825444271        2.0002678365
 C        -7.5123753712        0.0717014384        0.9774655542
 C        -7.2123152058       -0.8134053611       -0.1694589889
 O        -7.3154876304       -2.0242264831       -0.1551614037
 C        -6.3644581648       -0.1688338900       -1.4392698135
 C        -7.4985133876        0.7260087739       -2.1758395238
 O        -8.1866661454        1.3458450692       -1.3875856673
 C        -7.4998853627        0.7808525487       -3.6630781893
 C        -8.4676068670       -0.2175367864       -4.2481998550
 C        -9.2519672195        0.3513319615       -5.5540754231
 O        -8.9378245118        0.0064283486       -6.6492640065
 C       -10.5982082966        1.1839394192       -5.5573992921
 C       -10.8704814181        1.9363643387       -4.2117420685
 O       -10.5452569556        1.3839972454       -3.1314952835
 C       -11.8642275930        3.1083401599       -4.2297947922
 C       -11.2407822957        4.4593888287       -4.2705417172
 C       -10.4860920310        4.7892589030       -3.0606858876
 O       -10.6891524573        4.1304518400       -2.0671788500
 C        -9.4979739301        6.1800531981       -3.0509930348
 C        -8.4539404306        5.8077426021       -2.0613893243
 O        -7.6533703719        4.8993849600       -2.3076117921
 C        -8.0925661288        6.8496517609       -0.8884300128
 C        -9.0462166317        6.6843159692        0.3400998152
 C        -9.6548643879        5.3205879387        0.6387193633
 O        -9.1911619854        4.3507042507        0.0554301184
 C       -10.9501220761        5.0434708364        1.6018732491
 C       -11.7471241860        6.3281014679        2.1345052124
 O       -11.4597178440        7.4674717699        1.8092635039
 C       -12.8133592906        6.1736348931        3.4552165204
 C       -12.9690897552        7.6137628149        4.0287841448
 C       -11.5709687523        8.1124353838        4.4139244058
 O       -10.9406043686        7.2217565141        4.9806256055
 C       -10.9432447851        9.5457668473        4.3796142498
 C       -11.9752247743       10.7364732671        4.4127454236
 O       -13.0629037381       10.3584529887        4.1945475249
 C       -11.5168496092       12.1988593225        4.6925724593
 C        -9.8382990369        9.6355986878        5.5180209087
 C       -10.1144840116        9.4987774860        3.0571603796
 C       -11.9927344753        4.3081125618        0.6606218273
 C       -10.4951424952        4.0638608044        2.7529651398
 C        -9.0310442835        6.4604615243       -4.4420701468
 C       -10.4010550712        7.3304319395       -2.5162518609
 C       -10.5913123971        1.9928348529       -6.8415489205
 C       -11.8682978958        0.2543217069       -5.4897158490
 C        -5.3789254545        1.0359647919       -1.2114729982
 C        -5.7481630529       -1.2863629755       -2.3881889818
 C       -12.4955978154       -0.5860021999        3.0335230965
 C       -10.5012325740       -1.6669050812        4.0111435980
 H       -12.1721776218       -3.6917878484        2.7095336396
 H       -10.4734676627       -3.9953627038        2.1089711512
 H       -11.9391354034       -4.1895116124        1.1705351012
 H        -8.3389069836       -1.5829745157        1.9634659689
 H        -8.2182801195       -0.2726146945        3.0352000358
 H        -6.4662035976        0.0162382166        1.4467629839
 H        -7.5408575987        1.1192636401        0.7724948617
 H        -6.3623933941        0.5956414620       -4.0271092966
 H        -7.7726336074        1.7275077059       -4.1738649753
 H        -9.0981935262       -0.6255965340       -3.4215345429
 H        -7.9492674073       -0.9795385622       -4.7686102360
 H       -12.2945168635        2.9284462447       -3.2339733928
 H       -12.4682565258        2.9362185085       -5.1360860959
 H       -12.0931463021        5.2404741379       -4.4278747293
 H       -10.6236038192        4.5664997266       -5.1634017305
 H        -8.2258995226        7.8058948183       -1.3358005295
 H        -7.0012141818        6.7405276950       -0.6322914819
 H        -9.7603214026        7.5038571438        0.2123137992
 H        -8.5163416463        7.1119247171        1.1499522728
 H       -12.4015097548        5.5415549922        4.2504754031
 H       -13.6933857733        5.7257738033        3.0789440707
 H       -13.6815019252        7.8926906603        4.8542231566
 H       -13.4078964483        8.1027472295        3.0439912480
 H       -12.3994724673       12.8000447752        4.4865631080
 H       -10.9912833633       12.4232672189        3.8127249830
 H       -11.0486853218       12.4796038066        5.6718076828
 H        -8.9386693549        8.9847127338        5.3539555654
 H       -10.4317806508        9.4295707502        6.4127933343
 H        -9.5916233974       10.7063245116        5.8552168385
 H        -9.3161089689       10.2458121284        3.1436115214
 H       -10.5518032581        9.6648625031        2.0756231074
 H        -9.4295957098        8.6804924599        2.9435469224
 H       -12.8282094576        3.7772791372        1.3178795003
 H       -11.4710958551        3.5571318241        0.0935316654
 H       -12.5456666179        4.8943152991       -0.0829631278
 H        -9.8440283864        4.5607253678        3.4246707162
 H        -9.9818904926        3.1495469944        2.3071288219
 H       -11.4242614502        3.6838640154        3.2347524429
 H        -8.7017852603        5.5625619229       -4.9639628387
 H        -8.2191807882        7.1888655624       -4.2216647858
 H        -9.8527136019        6.8031505188       -5.0409976767
 H       -11.2725731739        7.4338496306       -3.1901092527
 H        -9.9561496610        8.2995221699       -2.4356168544
 H       -10.7820132466        7.2590062072       -1.5302907442
 H       -10.3294677007        3.0191955759       -6.7491498011
 H       -11.4622765836        2.0775651829       -7.4507945368
 H        -9.7822705655        1.5063587724       -7.4183612916
 H       -11.8582623272       -0.4442137339       -6.3372720630
 H       -12.7950620150        0.8248612286       -5.4717815327
 H       -11.6133545348       -0.4729378385       -4.6017095041
 H        -5.3812980257        1.3538007348       -0.1540580349
 H        -5.7924116078        1.8348508592       -1.7791226255
 H        -4.3869965966        0.6738144195       -1.5271415075
 H        -4.8542122675       -0.9265172738       -2.9168529220
 H        -6.4650585415       -1.7541623886       -3.0232766210
 H        -5.4769256293       -2.0034724448       -1.6805591925
 H       -12.5984231065        0.4567912334        3.1694711446
 H       -12.6863479406       -1.1053643375        3.9696203250
 H       -13.1681368485       -0.8956252030        2.1793697008
 H       -10.1913046073       -0.8633357338        4.6402229672
 H        -9.6780833392       -2.3160876440        3.9865187482
 H       -11.3317672683       -2.2399294573        4.5530653180
 Na      -10.0672769203        2.1049406002       -0.5881258139
