117

 C       -10.8746303226       -3.6250958557        2.0113751766
 C       -11.3376875039       -2.2809301296        1.5616427650
 O       -11.6209001364       -1.9744420495        0.4289028250
 C       -11.2111265833       -1.0432710561        2.6452894716
 C       -10.0959072600       -0.0869975579        1.9813879142
 O       -10.4300022566        0.9513611761        1.4377845808
 C        -8.6254189483       -0.5151804400        2.1446674301
 C        -7.7056947575        0.0732392099        1.1242651483
 C        -7.3593174964       -0.8037788635       -0.0127801968
 O        -7.1788921997       -1.9916644746        0.1767409171
 C        -6.5879781644       -0.1089674444       -1.2821881587
 C        -7.6550310002        0.5621528072       -2.1037939529
 O        -8.5294905009        1.0779384433       -1.3841099596
 C        -7.6550294090        0.8065367499       -3.6636532323
 C        -8.5306587889       -0.2789766343       -4.3023879843
 C        -9.1372196494        0.3830154553       -5.6531108258
 O        -8.5825268534        0.3854372120       -6.7358698183
 C       -10.5816591063        0.9941244561       -5.5634704556
 C       -10.8988606883        1.7919914710       -4.2630675491
 O       -10.3228221696        1.5530624846       -3.1968466016
 C       -11.9734191398        3.0755677546       -4.2333456634
 C       -11.3327875992        4.4638938898       -4.3164105828
 C       -10.4939522263        4.7196712644       -3.0531899751
 O       -10.8794372515        4.2156016938       -2.0335625882
 C        -9.4541079678        5.8980683951       -2.9628540495
 C        -8.2697944574        5.5140054266       -2.0760254642
 O        -7.4326784034        4.7885558230       -2.6311886470
 C        -7.9366138893        6.1459873011       -0.6637126917
 C        -9.0472844974        6.2898340503        0.3939509682
 C        -9.7653519544        5.0574397407        0.7100433704
 O        -9.3961869158        4.0179099241        0.1790696530
 C       -10.9785057184        4.9545051221        1.6379231002
 C       -11.6022813702        6.3710954943        1.8143860014
 O       -11.4944618580        7.2527090814        0.9199733636
 C       -12.5598109366        6.5265515335        3.0113716823
 C       -12.5237159164        7.9446373025        3.6804093587
 C       -11.2478142937        8.2885349225        4.4622655310
 O       -10.5066425719        7.4913588534        5.1134700703
 C       -10.7154939944        9.8366887056        4.3606077213
 C       -11.8270410753       10.9916926513        4.4102497927
 O       -12.9855753455       10.8272340036        4.4547277630
 C       -11.2737706471       12.4913286089        4.3032547382
 C        -9.7964597755       10.0437450065        5.7127452396
 C       -10.2204982200        9.9818052460        2.9598342491
 C       -12.1764527792        4.1973611378        1.1528602394
 C       -10.3320962008        4.4451773355        2.9623608356
 C        -8.7567491074        6.0834928241       -4.3331858762
 C       -10.1816199032        7.2949540207       -2.6760762428
 C       -10.8099390901        1.8082477495       -6.7836026813
 C       -11.3613114226       -0.3604320566       -5.6617155523
 C        -5.4104976492        0.7021672865       -0.5928874432
 C        -5.9797483028       -1.3561653138       -1.9720207691
 C       -12.5089965468       -0.1010387747        2.5919885291
 C       -10.7769881896       -1.4170712618        4.1070385001
 H       -11.6152620914       -4.0549727229        2.6830564933
 H        -9.8781651528       -3.6003516838        2.5326319589
 H       -10.9457943978       -4.3563021783        1.1949796964
 H        -8.5997160132       -1.5679823779        2.2338551539
 H        -8.2571934453       -0.2151410998        3.1782048870
 H        -6.8805298574        0.5210451354        1.7197479419
 H        -8.1262456595        0.9349658049        0.7993575290
 H        -6.6476837965        0.7500317641       -4.0829347180
 H        -7.8936130215        1.7324504802       -4.0047203957
 H        -9.4055044329       -0.5143717346       -3.7718485346
 H        -7.8551550718       -1.1394280565       -4.5232994944
 H       -12.4069372038        2.8754759277       -3.2090262026
 H       -12.7694860761        2.8812381878       -4.9782541641
 H       -12.1174549623        5.2141384638       -4.2069647318
 H       -10.8276282827        4.5313427017       -5.3033667449
 H        -7.3566236479        7.0545658895       -0.8756666993
 H        -7.2077655685        5.4345470976       -0.2576780123
 H        -9.8201056391        6.9265892046       -0.0853748653
 H        -8.7373772545        6.8723086176        1.2761115948
 H       -12.3956910957        5.7385745699        3.8683203216
 H       -13.5470480620        6.3553940255        2.4899662831
 H       -13.2899996390        7.8888094269        4.3994916814
 H       -12.8686792280        8.6894848419        2.9969940213
 H       -11.6232258450       13.0872222005        5.1290127924
 H       -11.6207809162       13.0478449591        3.4629117281
 H       -10.1692432459       12.3250824211        4.4313257268
 H       -10.0438984595        9.1809601774        6.2997766902
 H        -9.8381038167       10.9145590910        6.2801729671
 H        -8.7188385476       10.1403212793        5.4325540312
 H        -9.9665560605       11.0044332686        2.6777238992
 H       -10.8531709346        9.5918296735        2.1767584169
 H        -9.3003309563        9.4823829629        2.7790195614
 H       -11.9839109737        3.1419974862        0.7155980127
 H       -12.7833632439        4.7389355306        0.4986943931
 H       -12.7563249335        3.8417281969        1.9524489779
 H        -9.5583622233        5.1054295691        3.1940678379
 H        -9.8784162642        3.4749822247        2.7085635224
 H       -11.0807210570        4.3923803434        3.7973616694
 H        -8.3267146825        5.1697373684       -4.5997904581
 H        -8.0180107147        6.9160080144       -4.2528490681
 H        -9.5028501393        6.1587351547       -5.0272900100
 H       -10.9856758014        7.6442663576       -3.3586481461
 H        -9.6445809122        8.2560398727       -2.5415976675
 H       -10.7071921979        7.1250770957       -1.7253511661
 H       -10.0159664034        2.4626566063       -7.1010509438
 H       -11.5526940638        2.5537398155       -6.5160481475
 H       -11.2011358182        1.2599359491       -7.6610283425
 H       -11.2875514485       -0.6715527665       -6.6506552058
 H       -12.4007590802       -0.1975955648       -5.5640815626
 H       -11.0145846181       -1.0836974607       -4.7873772421
 H        -5.5528118575        1.7620946604       -0.8904464291
 H        -4.4250630030        0.4074077653       -0.9679204894
 H        -5.5588056710        0.6432821487        0.4717811410
 H        -5.6380649085       -1.0343787744       -2.9596309043
 H        -6.9030152185       -1.9972200311       -2.1342936525
 H        -5.2137915309       -1.9904989757       -1.4706705113
 H       -12.3285344793        0.7094771661        3.2748732221
 H       -13.3690401023       -0.6604062391        2.8038767706
 H       -12.6274626144        0.2629686644        1.5130686258
 H       -10.7653015234       -0.5766673892        4.7744779330
 H        -9.7864124508       -1.8927406073        4.1287778190
 H       -11.4322068721       -2.2005387673        4.5495361067
 Na      -10.4081119059        2.2862480987       -0.6778179399
