117

 C       -10.5641426802       -3.3380666257        1.6234272349
 C       -11.6561791106       -2.3755856340        1.6118405152
 O       -12.6704648641       -2.5427011815        0.9929154889
 C       -11.4892405073       -0.8398463426        2.3526402965
 C       -10.3220807300       -0.0500639819        1.7563318635
 O       -10.5356262189        0.6438401318        0.8034295912
 C        -8.8069216050       -0.1722580117        2.4396186351
 C        -7.5685063520        0.1496035185        1.5860747195
 C        -7.1886068919       -0.7614821899        0.3384403787
 O        -7.5028738542       -1.8913278915        0.3806122229
 C        -6.4173863297       -0.3809618137       -1.0143612023
 C        -7.6906148055        0.3581772870       -1.8012067889
 O        -8.5827167174        0.8655833524       -1.2100263402
 C        -7.5273272759        0.7266105041       -3.3070942772
 C        -8.4716345076       -0.0928117444       -4.1686434856
 C        -9.1006363455        0.7387105886       -5.2842513243
 O        -8.3261489423        1.3282062761       -5.9284218548
 C       -10.5452769323        0.8307682885       -5.5007102751
 C       -11.1175992684        1.5824718987       -4.2806674232
 O       -11.0803456545        1.0797488358       -3.1722753856
 C       -11.7873398217        2.9683898965       -4.5083490981
 C       -10.7258009008        4.1470345893       -4.5640693422
 C       -10.5192664709        4.7282427976       -3.1943814453
 O       -11.0333657738        4.2375330098       -2.2298229513
 C        -9.3681906461        5.7729810307       -3.2152156029
 C        -8.2265602067        5.0511847904       -2.1521488269
 O        -7.7553315049        4.0505616432       -2.6246166873
 C        -7.8886865662        5.5000993886       -0.7191544975
 C        -9.0072130727        5.8762813118        0.2828535513
 C        -9.8425136762        4.8043474197        0.8420308023
 O        -9.6409507311        3.6529472064        0.5656320445
 C       -10.9137972020        5.1180093253        1.9417858736
 C       -11.7176942615        6.4540380518        1.7238276376
 O       -11.7276597713        6.9784496529        0.5951884910
 C       -12.5399517903        7.0619833491        2.9800966670
 C       -12.0205901800        8.6030697939        2.9731221245
 C       -11.0039145349        8.8382893120        4.0375175127
 O       -10.6942659370        8.0189613578        4.8395250158
 C       -10.3607178589       10.3054717295        4.0702919092
 C       -11.5060658154       11.3455683414        4.4728605277
 O       -12.3476172702       10.7971363874        5.1068721217
 C       -11.5827112619       12.9620696802        4.1501650249
 C        -9.5752171701       10.3697708811        5.4925266777
 C        -9.5625987856       10.6004803721        2.8749589752
 C       -11.8908982754        3.8648346870        1.8632347852
 C       -10.1946432874        5.1968695082        3.3185459518
 C        -8.6150716716        5.8290697226       -4.5759676023
 C        -9.7304323656        7.1395682273       -2.6720717554
 C       -10.7649897416        1.5666630010       -6.9053449300
 C       -11.3888536574       -0.5953295388       -5.4613974539
 C        -5.2806008503        0.6251228799       -0.8411965648
 C        -6.0383495547       -1.7382469210       -1.6123594163
 C       -12.7786138649       -0.0263717609        1.9911353918
 C       -11.3297544354       -0.9632729883        3.8390667230
 H       -10.5499905278       -3.8594129737        2.6301906503
 H        -9.5535313083       -3.0143250230        1.4844780720
 H       -10.9162849236       -4.0125957092        0.8964707877
 H        -8.6745387419       -1.1006503890        2.9550622925
 H        -8.9782709226        0.5429340191        3.3360986919
 H        -6.6325302415        0.0958551644        2.2555203570
 H        -7.6522812713        1.1602005219        1.3881889259
 H        -6.4870730710        0.7284456878       -3.5888616050
 H        -7.7684061234        1.7257264239       -3.2472802442
 H        -9.1996122632       -0.5760081462       -3.5005914700
 H        -7.9256415008       -0.9121158148       -4.7015235780
 H       -12.5445954940        3.2625049521       -3.7920573709
 H       -12.3656462988        2.9692508085       -5.4128645784
 H       -11.3443555987        4.8281634088       -5.0791262256
 H        -9.7998598015        3.8552164020       -5.0179558195
 H        -7.0448636040        6.1990119760       -0.7366918177
 H        -7.4718774997        4.5240135577       -0.3136362797
 H        -9.6910946363        6.7169275273       -0.0087143483
 H        -8.3666121026        6.2772223851        1.1192532550
 H       -12.2663830032        6.5637106583        3.9774093439
 H       -13.6465891063        7.0381667819        2.8148779008
 H       -12.8242106100        9.1994988036        2.9587849051
 H       -11.6780764773        8.6739796518        1.9216143603
 H       -11.3734450060       13.6435955568        4.9914746812
 H       -12.5664969271       13.2554138814        3.8694065191
 H       -10.8252952680       13.0762832550        3.3379211188
 H       -10.1326177595       11.1245055227        5.9624454416
 H        -8.5668800828       10.6756314880        5.6157718996
 H        -9.6738852957        9.3537919196        5.9978219927
 H        -8.9098069966       11.4946209332        2.9895794228
 H       -10.0909120996       10.9115134958        1.9128962719
 H        -9.0453220343        9.6927853851        2.4909832872
 H       -12.8261940087        4.0748279114        1.3435254548
 H       -12.3121743393        3.6527241138        2.8384943806
 H       -11.5820687067        2.9672233728        1.3889074123
 H        -9.9012955987        6.1741419142        3.4765449022
 H        -9.3775638061        4.4964996793        3.4205721247
 H       -10.9810607465        5.1328936361        4.0480789289
 H        -7.8830002169        4.9883336023       -4.7138721956
 H        -8.0155725088        6.7713775282       -4.4841863763
 H        -9.2245655156        5.9550301004       -5.5122957445
 H       -10.2241750723        7.8728844231       -3.3285409821
 H        -8.7942097257        7.6633985712       -2.5225696276
 H       -10.3511263452        7.1568505140       -1.7987595263
 H       -10.4427074888        2.6010750977       -6.8371449136
 H       -11.7531503715        1.4438462275       -7.3799918516
 H       -10.0578923089        1.1714737500       -7.6913269133
 H       -10.7751515942       -1.2390345408       -6.1091593100
 H       -12.4299594869       -0.6043471076       -5.7520299414
 H       -11.3661527192       -0.8427740681       -4.4305030532
 H        -4.7658022393        1.0088042519       -1.7279749578
 H        -4.6737721550        0.0029186492       -0.2187690322
 H        -5.5176456173        1.4612374081       -0.1779492825
 H        -5.4089212500       -1.7265807913       -2.5764332012
 H        -6.8578805683       -2.4066728753       -1.8225224285
 H        -5.4716141782       -2.1628324318       -0.8194937718
 H       -12.6805809685        0.9377519550        2.4433610889
 H       -13.7236564448       -0.4904996440        2.3192513882
 H       -12.8692489474       -0.0784560062        0.8675311406
 H       -11.3249134336       -0.0476643563        4.3859712644
 H       -10.3978024849       -1.4734328034        4.0031479261
 H       -12.1390854295       -1.6178950920        4.3301305732
 Na      -10.5806350326        1.9468218965       -1.1274588138
