117

 C       -10.6874795880       -2.9625760616        1.2089936690
 C       -11.9208944129       -2.2753578056        1.7442928735
 O       -12.9516889443       -2.9162621649        1.8128609323
 C       -11.7592881607       -0.6940993837        2.1313063872
 C       -10.4879132025       -0.0637116652        1.4653764322
 O       -10.6024368731        0.2579170256        0.2946621099
 C        -9.2653960362        0.0734049600        2.2850694159
 C        -7.9633122451        0.2424962074        1.3643654848
 C        -7.5356742842       -0.8898892981        0.5278191960
 O        -7.7458513303       -2.0316512128        0.8919257107
 C        -6.7218437900       -0.5005141905       -0.7555259296
 C        -7.5204319918        0.2904085952       -1.7205425458
 O        -8.4275027257        0.9346170937       -1.2758560597
 C        -7.1848103802        0.5090628528       -3.2811342441
 C        -8.4495506580        0.1057418833       -4.0230887688
 C        -9.0976147668        1.1013767082       -5.0073287959
 O        -8.6312016154        2.1896405225       -5.2469895243
 C       -10.5391307986        0.6796157196       -5.5251501348
 C       -11.3622653789        1.4502361083       -4.4106802850
 O       -11.5320594132        0.8225777294       -3.3500211199
 C       -11.8376131914        2.8785174579       -4.7660275015
 C       -10.6256453210        3.9386328387       -4.8787931329
 C       -10.3030368303        4.4499089016       -3.4890031906
 O       -11.0438620896        4.1359951479       -2.6019992610
 C        -9.1747029232        5.2617436169       -3.0771549170
 C        -8.2138230283        4.4311909392       -1.9553270049
 O        -8.1838784657        3.2299620247       -1.9853829263
 C        -7.7902202727        5.3532456942       -0.7799790739
 C        -8.7704040729        5.5496547413        0.4217915090
 C        -9.9785418847        4.5826538985        0.9217982777
 O       -10.2369363236        3.4666641657        0.5744550861
 C       -10.6617274195        5.3129564313        2.1286483748
 C       -11.4827481966        6.6564178216        1.4474135658
 O       -11.6833918056        6.5534287308        0.2706314789
 C       -12.3170635883        7.6150444387        2.2936804255
 C       -11.4939573993        8.9989229780        2.4682661523
 C       -10.6207663988        9.2359261375        3.7648279599
 O       -10.3680326090        8.3583125362        4.5270680465
 C       -10.1753556122       10.6085084625        3.9887099015
 C       -11.3584604671       11.6600268934        4.5062214230
 O       -12.0858558446       11.1791840681        5.3951708844
 C       -11.6871021377       13.0958311625        3.9950330343
 C        -9.2576650761       10.4971402240        5.2458482563
 C        -9.5688628344       11.1964370815        2.7008313332
 C       -11.7592936087        4.3621294126        2.7071066853
 C        -9.7197612470        5.7825786325        3.3733278457
 C        -8.2408894099        5.6462344200       -4.1751676459
 C        -9.7681920339        6.5857581929       -2.5025569222
 C       -10.7928387990        1.1978843675       -6.9108300157
 C       -10.7364136946       -0.8398858083       -5.2723104168
 C        -5.3593422558        0.3028909986       -0.1730491021
 C        -6.1398771779       -1.9142017962       -1.0785678597
 C       -13.0272977786       -0.0150800681        1.6844861441
 C       -11.6830934415       -0.8999644367        3.6355825832
 H        -9.8365192844       -2.4054350771        1.6710614432
 H       -10.5712235581       -2.7828747663        0.1932065245
 H       -10.6723790188       -4.0235252624        1.2333674399
 H        -9.2572193287       -0.7915056378        2.9142970558
 H        -9.3673265762        1.0006858589        2.9744167328
 H        -7.2157280704        0.2420494110        2.2351839683
 H        -7.9415972297        1.2188216232        0.9447258537
 H        -6.4241110432       -0.1680634099       -3.5317984697
 H        -6.9607367177        1.5098889011       -3.4513574063
 H        -9.2424392361       -0.3297304112       -3.3010460962
 H        -8.2355928684       -0.7538316724       -4.6797987176
 H       -12.6487365781        3.2015662589       -4.1538352926
 H       -12.3938439057        2.8237941221       -5.6640689761
 H       -11.0479845828        4.7946148023       -5.3856931110
 H        -9.9296075510        3.3925871550       -5.4457348492
 H        -7.5773093954        6.3444383464       -1.1193124426
 H        -6.8212321869        4.9124179390       -0.4968125617
 H        -9.3511490384        6.4898005409        0.0988075173
 H        -8.1410186035        5.7964534119        1.3303109894
 H       -12.5420321962        7.1947185351        3.2858185240
 H       -13.2805760127        7.6197213674        1.7515940085
 H       -12.1183043582        9.7589173417        2.2764296798
 H       -10.7470847025        9.0216851640        1.6540591079
 H       -11.2422614659       13.4724062190        3.0391329979
 H       -11.5821078723       13.8179380772        4.7992147722
 H       -12.7608092497       13.0281787664        3.8201234630
 H        -8.2557776704       10.7878441744        4.9451599088
 H        -8.9487152007        9.5425262925        5.6451606693
 H        -9.7083643578       11.2358873003        5.9297323123
 H        -8.6892651687       11.8615207641        2.7951711082
 H       -10.3291044423       11.5886935095        1.9709239359
 H        -8.9687636583       10.3597810315        2.2421982406
 H       -12.2733304532        4.5815844816        3.5544017038
 H       -11.3746282205        3.2528249425        2.8590990559
 H       -12.5115807763        4.0990125330        1.9424144001
 H        -8.8888202214        6.3864899302        3.0079859581
 H        -9.3553624062        4.8454966085        3.8508666147
 H       -10.2860963803        6.3814783967        4.0612388497
 H        -7.9743618018        4.7750212057       -4.8701694305
 H        -7.2394297964        5.9846369736       -3.8663556658
 H        -8.5415804185        6.5823399553       -4.8019341417
 H       -10.2324668386        7.2262802378       -3.2648058914
 H        -9.0529147040        7.1268650150       -1.9329228383
 H       -10.5956928756        6.3976487748       -1.8691751015
 H       -10.5486643305        2.2148939688       -7.0943882312
 H       -11.8454708893        1.0004926364       -6.9898977362
 H       -10.3291919385        0.6362349590       -7.7431408629
 H        -9.8266367019       -1.4716098832       -5.6006345686
 H       -11.6483023432       -0.9928663415       -5.8477661495
 H       -10.9218941648       -1.0204575796       -4.3165115347
 H        -4.6828753791        0.5640230705       -0.9885139212
 H        -4.9852204402       -0.2485276230        0.6629959802
 H        -5.5405979989        1.3472473471        0.1633930558
 H        -5.2031426832       -1.7927052145       -1.7265657782
 H        -6.7902380290       -2.4213773164       -1.7016566980
 H        -5.8756078338       -2.5405098386       -0.2872170530
 H       -13.1429480380        0.9052568270        2.2035146641
 H       -13.8812674015       -0.6618729480        2.1236138648
 H       -13.1502799388        0.1204235829        0.5938413987
 H       -11.4985867689       -0.0220449471        4.2126319372
 H       -10.9824058556       -1.6291220518        3.9586088859
 H       -12.7303363704       -1.2792110824        3.9166119817
 Na      -10.4730313278        2.1056360621       -1.5881467252
