117

 C       -11.3949181825       -2.9133502516        0.6534113552
 C       -12.2771574343       -2.2958935523        1.8078428469
 O       -13.0407411903       -2.9707257886        2.4716685866
 C       -12.0826769532       -0.7849217490        2.0375234555
 C       -10.9086411874       -0.1615914905        1.3786061681
 O       -11.0887021922        0.3745577590        0.2824536949
 C        -9.6162025381       -0.0228302637        2.1346170413
 C        -8.3217204662        0.4741656366        1.3407870373
 C        -7.5672961856       -0.7236247323        0.7499102636
 O        -7.9673763404       -1.8739584513        0.9809433086
 C        -6.5979442344       -0.6026976421       -0.4414342622
 C        -7.5162511028       -0.0862088757       -1.6871544682
 O        -8.7378032749        0.0512166440       -1.4589631232
 C        -7.0052500438        0.1884214459       -3.0729124033
 C        -8.0925598077       -0.4612171301       -3.9826837661
 C        -8.7335268329        0.6738307032       -4.7255171807
 O        -8.0490327290        1.7203290931       -4.9051883946
 C       -10.0871631617        0.6376347074       -5.4067319163
 C       -11.1213716919        1.7312644740       -4.7268153489
 O       -11.5029964317        1.3980680979       -3.5783013767
 C       -11.6961711597        3.0268925462       -5.2912725353
 C       -11.4674092101        4.2943350568       -4.4969213793
 C       -10.8020925256        4.0845050409       -3.1887638704
 O       -11.4059170339        3.6103104855       -2.2579944139
 C        -9.5083284865        4.9047689005       -2.9024554207
 C        -8.6207375323        4.1059950856       -1.8542140513
 O        -8.5054873847        2.8745051922       -1.9906725347
 C        -7.7061252055        4.7065594712       -0.7239294696
 C        -8.3534546945        5.5780758658        0.3020453038
 C        -9.6954078168        4.8617761832        0.9126043276
 O       -10.2541869008        3.8838119586        0.4710616884
 C       -10.4860359007        5.6190681187        2.1451389485
 C       -11.2026774838        6.8579743687        1.4103142959
 O       -11.3393784349        6.8884568690        0.2318316735
 C       -11.8085051595        8.0094814080        2.2648125050
 C       -10.9699325470        9.2095704423        2.2800876771
 C       -10.4053046008        9.6460453423        3.6395129773
 O       -10.3496979698        9.0017840514        4.6358393796
 C        -9.8485899709       11.0683505643        3.7195088923
 C       -11.2764980387       11.8085756484        4.3197856374
 O       -11.8762088251       11.0891916560        5.2045016624
 C       -11.9686671245       13.1576402723        3.9637260169
 C        -8.6486696170       10.9919445625        4.7658553733
 C        -9.4976436549       11.8071443445        2.3397847496
 C       -11.4688627825        4.5576396992        2.5600971797
 C        -9.7089434421        6.1625524263        3.2997506805
 C        -8.5229925065        4.8417317109       -4.0782291654
 C        -9.8634541956        6.4170075903       -2.6833413324
 C        -9.8416293651        1.0407381364       -6.8987285444
 C       -10.8313025468       -0.7268127269       -5.2351365662
 C        -5.4278975561        0.2570778679       -0.0406413122
 C        -6.1594245923       -1.9879216465       -0.7921705263
 C       -13.4409812496       -0.2895384259        1.4973106367
 C       -12.1703905759       -0.5742969067        3.5293651337
 H       -10.3443803559       -2.6526620228        1.0221682336
 H       -11.4743946167       -2.3673989028       -0.2476383055
 H       -11.4798185420       -3.9121437037        0.1847671254
 H        -9.4230912332       -0.8296088840        2.7815878003
 H       -10.0110440761        0.8348197202        2.7392364631
 H        -7.7299505245        1.0805587240        2.0917900444
 H        -8.5908891002        1.0846410431        0.4533142787
 H        -6.0805936877       -0.2837441770       -3.2353867300
 H        -7.0708768096        1.2823624430       -3.1479732740
 H        -8.9976649391       -0.9484055574       -3.4051696735
 H        -7.5729774208       -1.2141950469       -4.5729808374
 H       -12.7548455181        2.8640646221       -5.5104271782
 H       -11.3198332288        3.2495283395       -6.3157102796
 H       -12.4484720914        4.7582749221       -4.1938582359
 H       -10.8143537654        4.9379183900       -5.0011758855
 H        -6.7947518355        5.0846880910       -1.1293823701
 H        -7.4077738129        3.8464609418       -0.0885328204
 H        -8.7971111831        6.5453897941        0.0218359807
 H        -7.5738816486        5.6831283297        1.0546726676
 H       -12.0680617611        7.5283905161        3.1630403410
 H       -12.7377483046        8.3985762852        1.9152179193
 H       -11.5027887786       10.0178852212        1.8656254294
 H       -10.1324727523        9.0976581209        1.6043010459
 H       -13.0524861073       12.9934180971        3.8327767555
 H       -11.5265765591       13.7180456727        3.1296497930
 H       -11.7112351455       13.7651582625        4.7503105593
 H        -8.2488783304        9.9875806579        5.1305983637
 H        -9.0563263010       11.3630271219        5.7593676453
 H        -7.9044093151       11.5995206996        4.2733806803
 H        -9.4016692271       12.8597038479        2.5605744134
 H       -10.2819795715       11.7517562841        1.6414409404
 H        -8.5368234601       11.4612214724        1.9868334269
 H       -11.0336754725        3.6002786130        2.7798999369
 H       -12.3436982484        4.4673330692        1.8465793389
 H       -11.9790487417        4.7436404057        3.5442768568
 H        -9.2108928124        7.1074896149        2.9728868928
 H        -8.8968454074        5.4530317672        3.6526961676
 H       -10.4174345520        6.1816611294        4.0680837793
 H        -8.5547469148        3.9532531256       -4.7218216260
 H        -7.4900966332        4.9169659183       -3.8582285097
 H        -8.6507807479        5.7325437698       -4.7411600315
 H       -10.2893016355        6.8360446152       -3.6320076217
 H        -8.9398430215        6.8427094467       -2.3431954129
 H       -10.5578723557        6.6301978704       -1.8883791744
 H        -9.1060195021        1.8200436210       -6.8323688768
 H       -10.6986866462        1.5150656233       -7.3385411991
 H        -9.4070083222        0.2822722593       -7.5684481459
 H       -10.3931856917       -1.5087515798       -5.8785317713
 H       -11.8936440900       -0.6239083828       -5.3920230494
 H       -10.5339194862       -1.0653663687       -4.1908186902
 H        -4.9093158430        1.0247137665       -0.6716571435
 H        -4.6337387889       -0.4527984224        0.1514992678
 H        -5.5569076065        0.6952399869        1.0029230532
 H        -5.6110225836       -2.0821724849       -1.7575578498
 H        -6.8952038936       -2.7438511491       -0.7622392494
 H        -5.3799431325       -2.2713388886       -0.1167659741
 H       -13.6460575076        0.7231906798        1.7283081967
 H       -14.2433987343       -0.9302492897        1.9915918153
 H       -13.4576330068       -0.2735340748        0.4446495728
 H       -12.1420662403        0.4634765069        3.8596977818
 H       -11.3140159127       -1.0554420585        3.9731853485
 H       -13.0399053060       -1.1174756469        3.9325000494
 Na      -10.2330795086        1.8382310855       -1.1626407252
