117

 C       -11.7315010046       -2.8526483555        0.4707465120
 C       -12.3611665698       -2.4139549516        1.7678205061
 O       -12.6780519684       -3.1492080850        2.6449143124
 C       -12.3315673424       -0.6372125000        2.1218841891
 C       -11.1899876002       -0.1048572558        1.4733348724
 O       -11.2482027065        0.3596098978        0.3642260088
 C        -9.8191866581       -0.0036064217        2.2514157477
 C        -8.6365235269        0.2844949857        1.3672143935
 C        -7.7958668269       -0.9179156787        0.9639526078
 O        -8.1472841352       -1.9711878324        1.3341795789
 C        -6.8232229392       -0.7632718082       -0.3446604311
 C        -7.6979713570       -0.5183620403       -1.6033138790
 O        -8.8564282752       -0.5680695904       -1.4673687287
 C        -6.9196265696       -0.4499312255       -3.0398252495
 C        -7.9510258741       -0.5240050072       -4.1577131823
 C        -8.4839692712        0.8782960852       -4.7823008492
 O        -7.8814441431        1.8884863808       -4.7390872834
 C        -9.9850570007        0.7391029222       -5.4829386919
 C       -10.8327584321        1.6518608578       -4.6052446531
 O       -11.1367844269        1.4095680088       -3.4805337285
 C       -11.0208957107        3.0519787461       -5.2320862045
 C       -11.7940841430        4.0721125411       -4.3927867741
 C       -10.8956567440        4.0602205517       -3.1499262615
 O       -11.4929901660        3.6396779610       -2.1610661812
 C        -9.5806912541        4.6498453843       -3.0280960872
 C        -8.6948125561        3.8626716577       -1.9434318832
 O        -8.5050575269        2.6683239721       -1.9148116292
 C        -7.8139215146        4.7857785653       -1.0020508465
 C        -8.4165467496        5.7691910850        0.2121949735
 C        -9.5863746809        4.8741486370        0.8822202369
 O        -9.9574445580        3.8319824053        0.4059990098
 C       -10.4175687096        5.6134113767        1.9792361963
 C       -11.1175977594        6.9574363107        1.4201728687
 O       -11.1336513936        7.1094970003        0.2020079127
 C       -11.7250221365        7.9759418889        2.3564964989
 C       -10.8837540041        9.3432607469        2.0527777053
 C       -10.3245072724        9.8386863469        3.4815708345
 O       -10.2730228703        9.0020287948        4.3867553881
 C        -9.8415466980       11.3033392903        3.6607874717
 C       -11.2760905126       11.9000107857        4.4141776185
 O       -11.7422336476       11.2993084061        5.2610754706
 C       -11.7223999839       13.3469048093        3.8581878143
 C        -8.5403201995       11.7172628510        4.7594138113
 C        -9.5888417981       11.9886482815        2.2813372805
 C       -11.6135529130        4.8525142185        2.5598431824
 C        -9.3706513891        5.9739478222        3.1126723898
 C        -8.6928598042        4.7148830133       -4.2706470261
 C        -9.6932098364        6.1866192142       -2.4739369445
 C        -9.8372972971        1.0243509283       -7.0127495206
 C       -10.6759856202       -0.6874300736       -5.4262180718
 C        -5.8902252736        0.4137630126       -0.0276892325
 C        -6.0287032938       -2.0433362811       -0.6406673797
 C       -13.5914140970       -0.1040091351        1.4068181288
 C       -12.3694971902       -0.4548716410        3.6621810163
 H       -10.6764366236       -2.9290302776        0.5075309428
 H       -12.0409068087       -2.2998375783       -0.4398249326
 H       -12.0410236903       -3.8336047815        0.1874192609
 H        -9.5904780068       -1.0776601569        2.6630850421
 H       -10.0162655724        0.6973852748        3.0818430675
 H        -8.0529386194        0.9920898851        1.9141081448
 H        -8.8946887973        0.6572567477        0.4027317298
 H        -6.2920170448       -1.3844096336       -3.1105079037
 H        -6.3997097970        0.4791077692       -3.0563748034
 H        -8.6598916915       -1.2022067034       -3.9251026924
 H        -7.2881752075       -0.8942125968       -5.0133161999
 H       -11.3994615566        2.9226541703       -6.2570882825
 H       -10.1215931933        3.6037022325       -5.3883512417
 H       -12.6778183848        3.7105515655       -3.9553450905
 H       -11.9790355078        5.0704236729       -4.9428614117
 H        -7.1649338417        5.4759176067       -1.6268065229
 H        -7.1185055011        4.0794556276       -0.5968502015
 H        -8.8630392183        6.7335861037       -0.1362525571
 H        -7.5373301568        6.0192432308        0.8908657200
 H       -11.6800491917        7.6764270178        3.4415687475
 H       -12.8300058350        8.0013113080        2.1427449302
 H       -11.2701356782       10.2673600713        1.5349560784
 H        -9.8895159621        9.0406652728        1.5855783400
 H       -12.7247311248       13.4417101603        4.2450080601
 H       -11.7933932383       13.3675704786        2.7992293784
 H       -10.9711476247       14.2036862389        3.9912189409
 H        -7.9296189589       10.8504101433        4.9031450161
 H        -8.9483448423       11.9916568753        5.6966304587
 H        -7.8597165608       12.4010481506        4.2049888558
 H        -8.9389371762       12.9167206992        2.4626771345
 H       -10.5508793597       12.3725884276        1.7482191536
 H        -9.0666751811       11.2450402626        1.6053608149
 H       -11.4104887456        3.7936236560        2.5420447324
 H       -12.5716757509        4.9757375667        2.0354560240
 H       -11.8058663799        4.9827569156        3.5955057781
 H        -8.4148734811        6.0793889434        2.7387998930
 H        -9.3189900966        5.0458384349        3.6173686895
 H        -9.8048875444        6.7109844582        3.8423369434
 H        -8.6842336961        3.8826986246       -5.0011302538
 H        -7.5787329938        4.7133963126       -4.0253931252
 H        -8.8218650536        5.6294158902       -4.8999359491
 H       -10.3641214609        6.6559773408       -3.1546603178
 H        -8.7644836805        6.7659062823       -2.5367803079
 H       -10.1111412069        6.2311965886       -1.4625921941
 H        -9.5443921318        2.0657470002       -7.1784995755
 H       -10.8144179889        0.9878210548       -7.4799090449
 H        -9.1051124608        0.3232099759       -7.4034826942
 H       -10.1590539445       -1.5483250979       -5.8884563919
 H       -11.6526694638       -0.5626243221       -5.9967814309
 H       -10.8810830318       -0.8595256161       -4.4718358477
 H        -5.1026243983        0.4782445868       -0.8179103059
 H        -5.2044983837        0.3354913564        0.8368823998
 H        -6.4620963843        1.2803901553        0.1064921067
 H        -5.0305820278       -1.8187307543       -1.0334069195
 H        -6.4687870595       -2.6753253242       -1.4214151131
 H        -5.8635262603       -2.7137659563        0.1904019434
 H       -13.3910726294        0.7275419349        0.6996712324
 H       -14.3967456036        0.0939674982        2.0539545523
 H       -13.9343532710       -0.8391434359        0.6268350417
 H       -12.4351022409        0.5899569830        3.8924151564
 H       -11.4567905335       -0.8289053099        4.1276354500
 H       -13.2262736324       -0.9898195553        4.1208876081
 Na      -10.5356317669        1.9941717523       -0.9585069720
