117

 C       -11.9609052097       -2.6189452052        0.4488693244
 C       -12.3385284681       -2.2986979387        1.8544749300
 O       -12.4930179044       -3.0881903651        2.7811132980
 C       -12.5267679306       -0.7870517141        2.0907565129
 C       -11.2366124560       -0.1433005370        1.4771538291
 O       -11.3471908610        0.3656465230        0.3774327259
 C        -9.8998469056        0.0331482674        2.3369345507
 C        -8.6725139451        0.2664918178        1.5008064156
 C        -7.9010033987       -1.0986061668        0.9491793278
 O        -8.1763704332       -2.1460260561        1.5429527578
 C        -6.9277025464       -0.9294756356       -0.2751946126
 C        -7.8270778076       -0.8914800971       -1.5772638305
 O        -9.0553605233       -0.6821659031       -1.6888268866
 C        -7.0135293322       -0.6079321116       -2.9879304444
 C        -7.7790742996       -0.6018066239       -4.3256688206
 C        -8.3904709567        0.6870087056       -4.8099455487
 O        -7.9185025734        1.8199617691       -4.7225853809
 C        -9.8546840634        0.6549948788       -5.5259051900
 C       -10.6522738113        1.6751394300       -4.7352585906
 O       -10.9535763595        1.4761141689       -3.5248324030
 C       -11.0274075799        2.9805031285       -5.4115669588
 C       -11.7501051737        3.8788144078       -4.4776118161
 C       -11.0785415539        4.0819074115       -2.9856533238
 O       -11.5875983920        3.8575885561       -1.8926075541
 C        -9.5419357595        4.6513380636       -2.9844763959
 C        -8.6020410209        3.9995496280       -1.8324623227
 O        -8.4667479875        2.7667321771       -1.9096706775
 C        -7.7557223354        4.8104575157       -1.0031750834
 C        -8.4234632169        5.5693797719        0.1743491008
 C        -9.6342985673        4.8939693616        0.7328125123
 O        -9.8385381640        3.7172075317        0.5320202762
 C       -10.3386478253        5.6500734210        1.9551884252
 C       -10.9789519158        7.0850593952        1.3570703122
 O       -11.0462051683        7.2102030081        0.1571882405
 C       -11.5263842367        8.0525807437        2.2458149915
 C       -10.8694647533        9.3773970241        2.0943685493
 C       -10.1015635640        9.8842577387        3.4545085763
 O       -10.1278019460        9.0370638524        4.3036507331
 C        -9.8861329002       11.4171903729        3.6573448470
 C       -11.0703595776       12.0880932222        4.3218120845
 O       -11.6753235382       11.5609783158        5.3032572097
 C       -11.5600821665       13.3792518009        3.8762407578
 C        -8.8149579686       11.8618694363        4.6642989698
 C        -9.7003254771       12.0891688417        2.2593645535
 C       -11.6025885216        4.9614782164        2.5431408096
 C        -9.2286946466        5.8604162361        3.0400662304
 C        -8.6092797905        4.8259038157       -4.2404507308
 C        -9.8278090536        6.1519017147       -2.6266902368
 C        -9.7916556389        1.1070362345       -7.0090219172
 C       -10.4864440017       -0.7497947163       -5.4706689325
 C        -6.1074169170        0.5131170156       -0.1352514473
 C        -5.8554493761       -2.1086584817       -0.3297875606
 C       -13.8104597015       -0.1908535357        1.4535341966
 C       -12.5715717265       -0.5323948597        3.6030903519
 H       -10.8370587100       -2.8437011293        0.3335701249
 H       -12.3235686991       -2.1091692396       -0.4028897419
 H       -12.2899716863       -3.6548711297        0.3045253413
 H        -9.8557913205       -0.9674139265        2.7528663247
 H       -10.1696708601        0.7725253305        3.1306518005
 H        -7.9207134096        0.8032005675        2.1795506652
 H        -8.9007296965        0.8491235799        0.6740680668
 H        -6.4086094623       -1.5936873725       -3.0074550953
 H        -6.4580688022        0.3728310275       -2.7789226512
 H        -8.5149626384       -1.4182837104       -4.1889059184
 H        -7.1142024884       -0.8236717523       -5.1793133563
 H       -11.8361644873        2.7633310688       -6.1980603241
 H       -10.2297057833        3.5943596451       -5.8834183218
 H       -12.8131697676        3.4967012514       -4.3403618452
 H       -11.8613450279        4.8946137754       -5.0127075322
 H        -7.3230242524        5.6878149828       -1.5999749328
 H        -6.9014332943        4.1937725565       -0.7622680434
 H        -8.4835000362        6.6090303171       -0.0323938536
 H        -7.7521697948        5.4708340655        1.0218525156
 H       -11.6159451401        7.7661354958        3.3322048221
 H       -12.5835196461        8.0820641802        1.9033137482
 H       -11.5067176949       10.1857412802        2.1439563204
 H       -10.0897137857        9.5615092230        1.2218143068
 H       -12.2102096972       13.7414726560        4.7217385150
 H       -12.1912254387       13.3734162625        2.9620906847
 H       -10.7301011280       13.9765880115        3.5697586374
 H        -7.9740052787       11.1644973461        4.6582110782
 H        -9.2933325222       12.0401438622        5.6337529607
 H        -8.3497990249       12.7302998233        4.2422320260
 H        -9.4249445596       13.1640750759        2.3645268272
 H       -10.6375784251       12.0342506443        1.6542540143
 H        -8.9274333502       11.4975598461        1.7192108730
 H       -11.3890813958        3.9708397895        2.6809101549
 H       -12.4811200350        4.9004571213        1.8050835216
 H       -11.9903792159        5.2852800446        3.4935091944
 H        -8.2556953497        5.8490515883        2.5935542834
 H        -9.1573103919        5.0273095968        3.7751054878
 H        -9.4530122402        6.7617990340        3.5212190675
 H        -8.0959774330        3.9099256097       -4.4235272076
 H        -7.9314254078        5.6060253950       -4.2304858152
 H        -9.2248485207        4.8962453086       -5.1712433690
 H       -10.5899701582        6.5329241156       -3.3896968714
 H        -8.9821829797        6.8282961261       -2.8399953445
 H       -10.1412386612        6.2903380727       -1.5899171108
 H        -9.5745143461        2.1643592087       -7.0792592528
 H       -10.7695404944        1.0689656493       -7.5053956309
 H        -8.9920695919        0.4622343354       -7.4983817427
 H        -9.8227446958       -1.6300181315       -5.6871849170
 H       -11.2161275243       -0.8005418048       -6.2900768550
 H       -11.0795219432       -0.8707394602       -4.5215206110
 H        -5.1286532602        0.3870235110       -0.6034310835
 H        -5.7835909990        0.9391041544        0.7603752421
 H        -6.7740395236        1.2232407024       -0.6012027462
 H        -4.7615950626       -1.6916241635       -0.4060304344
 H        -5.9057459195       -2.7110690050       -1.2394449593
 H        -5.8698459330       -2.8695895368        0.4377910809
 H       -13.5322538892        0.5761144758        0.8199813956
 H       -14.5494973572        0.1667321563        2.2539451649
 H       -14.3787255978       -0.8198691324        0.7510921496
 H       -12.7011691325        0.5074759332        3.7826946529
 H       -11.6455014093       -0.8631213152        4.0476662921
 H       -13.4135741769       -1.1073797900        4.1347307556
 Na      -10.6721416492        1.8991179120       -0.9247641051
