117

 C       -12.2131904059       -2.6170573522        0.4145791635
 C       -12.3424567658       -2.3281731277        1.8782638708
 O       -12.3077406806       -3.0491955875        2.8319409011
 C       -12.6052457543       -0.6775453470        2.1807701603
 C       -11.3436855147        0.0194667366        1.5601189243
 O       -11.4056135030        0.3277719240        0.3606426850
 C        -9.9787418147       -0.0846259601        2.3121926835
 C        -8.6754891674        0.0879799988        1.5560028727
 C        -8.0706631764       -1.1674918514        0.9237527323
 O        -8.1143063560       -2.1846247806        1.5807545912
 C        -7.1095734090       -0.9718506944       -0.3366162902
 C        -7.9024752061       -0.8702179068       -1.7040785704
 O        -9.0993654677       -0.8789412820       -1.6910121336
 C        -6.9673601771       -0.7228978736       -2.9349512772
 C        -7.6193554207       -0.7717497648       -4.3700371245
 C        -8.3508387047        0.5118677170       -4.8049536748
 O        -7.8167193395        1.6159857048       -4.6866978636
 C        -9.7207057934        0.5306574262       -5.6123439744
 C       -10.5965199637        1.6839745273       -4.7617264558
 O       -10.7432538153        1.4901752389       -3.5597208646
 C       -11.2487807738        2.9237386514       -5.4124319883
 C       -11.6910254784        3.8798436395       -4.2287291815
 C       -10.9513059366        4.0561083985       -2.9754877822
 O       -11.6608022600        4.0423697871       -1.9861472018
 C        -9.5699966423        4.7964143999       -2.9571584604
 C        -8.5353631246        4.0737758340       -1.9059750951
 O        -8.5932895168        2.8522657647       -1.8554352120
 C        -7.5653907426        4.9212681761       -1.0908652217
 C        -8.2967955435        5.4623281111        0.1524458289
 C        -9.5047495233        4.7483773728        0.8185770484
 O        -9.9451300437        3.5957190408        0.6723835325
 C       -10.2445098622        5.6870583751        1.8452232632
 C       -10.8417507269        7.0994348396        1.2313344450
 O       -10.8195134547        7.1890513716        0.0423452290
 C       -11.4010939048        8.1903953141        2.2585268622
 C       -10.9840204453        9.5542508134        2.1469390600
 C       -10.1645103184        9.9668562870        3.5474683470
 O        -9.7356164161        9.2024561021        4.3430648045
 C        -9.9090512861       11.5143409775        3.5748533776
 C       -11.2204340823       12.2207873388        4.3224813018
 O       -11.6048617510       11.6632565088        5.3803502062
 C       -11.5921813906       13.6867897100        3.8722696984
 C        -8.8105514654       11.8321013106        4.5112323259
 C        -9.6230674990       12.1421413520        2.1598638546
 C       -11.4774173001        5.0065681723        2.4305344830
 C        -9.3358306419        5.8984644957        3.0568019502
 C        -8.7003737960        4.7773939150       -4.2086803051
 C       -10.0864037078        6.2751290137       -2.6724455991
 C        -9.5153950218        1.0455091475       -7.0800894734
 C       -10.4180302733       -0.8537230153       -5.5177325958
 C        -6.4915777280        0.3648070479       -0.2941889955
 C        -5.9727679689       -2.0116465593        0.0346846853
 C       -13.9706578268       -0.3247810591        1.5000836484
 C       -12.7908731824       -0.5632150740        3.7544392063
 H       -11.0960594573       -2.6396048580        0.2460898676
 H       -12.6331578475       -1.9060337063       -0.2941595503
 H       -12.4683286626       -3.6703228696        0.0181931722
 H       -10.1064316566       -0.8706455778        2.9628213621
 H       -10.0852978392        0.8740782336        2.8152231725
 H        -7.9427494541        0.4088638654        2.3364580912
 H        -8.8841419565        0.9350026013        0.8170041800
 H        -6.2657120817       -1.5149602774       -2.6739010212
 H        -6.5992567153        0.3570041948       -2.7525928478
 H        -8.3416131708       -1.6918545352       -4.2944679593
 H        -6.9456440338       -0.8603474284       -5.2065525142
 H       -12.2101685222        2.7267245365       -5.9355740193
 H       -10.4827666910        3.4237961500       -6.0975608142
 H       -12.8019953384        3.6065784820       -3.9986800929
 H       -11.7533874783        4.9352389272       -4.5072651906
 H        -7.0022266621        5.7335992891       -1.4736294173
 H        -6.8138968466        4.1041746790       -0.8360847426
 H        -8.6795730719        6.4285342199       -0.1536528650
 H        -7.6435653547        5.6999058046        0.9394707697
 H       -11.2876399601        7.9694374535        3.3104970022
 H       -12.4736552168        8.0836007277        2.0996256891
 H       -11.6911972765       10.3460565791        2.1022268390
 H       -10.1872194296        9.7818653356        1.5395273534
 H       -11.7826027038       14.3400576878        4.7182537775
 H       -12.4292287542       13.9042949230        3.1482725360
 H       -10.7180282630       13.9250156237        3.3447217738
 H        -7.8280890166       11.4469477857        4.1065611851
 H        -9.2563348153       11.4328845354        5.4912853125
 H        -8.6444516571       12.8888574884        4.6003852830
 H        -9.6122507636       13.1822503373        2.2296684470
 H       -10.3243923711       11.8315540376        1.4447442257
 H        -8.6711347424       11.7874256666        1.8322503921
 H       -11.1748946105        3.9796027037        2.8796823438
 H       -12.2018810435        4.7160620477        1.7399092703
 H       -12.0043504500        5.5776102419        3.2368340632
 H        -8.2617571113        6.0445050880        2.6747977262
 H        -9.2527313977        5.0041214626        3.6756889533
 H        -9.6358671049        6.7708304039        3.5689868565
 H        -7.8687759195        4.1373105341       -4.0720257620
 H        -8.3302688502        5.6988717064       -4.5734330717
 H        -9.1283360728        4.1775439074       -4.9531491166
 H       -10.5286060674        6.7047900271       -3.6134375059
 H        -9.2547482297        6.9855744817       -2.4956188172
 H       -10.7375036468        6.2563934552       -1.7776641683
 H        -8.9445410935        2.0011516731       -7.0600435219
 H       -10.4846779797        1.4019955972       -7.4827539131
 H        -9.0537153455        0.2562594936       -7.6784766169
 H        -9.7652914664       -1.6277843318       -5.9326740620
 H       -11.3067043831       -0.9235143689       -6.1665690194
 H       -10.7895284998       -1.0936914979       -4.3899252915
 H        -5.4683101090        0.3439691592       -0.5169747151
 H        -6.3590281543        0.8720652417        0.6324210154
 H        -7.1793060026        1.0212003967       -0.8616652855
 H        -5.0344523404       -1.5933272039        0.3159567990
 H        -5.7049524272       -2.6515969133       -0.8391239488
 H        -6.3121566150       -2.8158173337        0.7402100602
 H       -13.8372368673        0.4507902246        0.7391062382
 H       -14.7349429183       -0.0281663904        2.2378528497
 H       -14.4294825484       -1.1164835460        0.9526159644
 H       -12.9852256230        0.5039920574        4.0698021256
 H       -11.9232635800       -0.9953101188        4.2805765957
 H       -13.6257556253       -1.1159860548        4.0591257430
 Na      -10.6732894769        1.8619808831       -1.0585920331
