117

 C       -12.3889252117       -2.6790837796        0.4762690073
 C       -12.3781633747       -2.2088444784        1.9270244558
 O       -12.1226953152       -3.0412975416        2.7389799081
 C       -12.7140969439       -0.7483255794        2.2562818058
 C       -11.4842822897       -0.0478467400        1.5906889759
 O       -11.5465955451        0.3395917580        0.4495083526
 C       -10.1686463280       -0.0986041683        2.4441966477
 C        -8.9063361726        0.1635759480        1.5200766978
 C        -8.2455534107       -1.1929747397        1.0839481819
 O        -8.2248258587       -2.2901257486        1.5457472099
 C        -7.2498935231       -0.9462026351       -0.2342140700
 C        -7.9360867143       -1.1153528872       -1.7327941348
 O        -9.1102226973       -1.0468382617       -1.7951919552
 C        -6.9592103552       -0.8367365651       -2.9517708634
 C        -7.6212159250       -0.9337272369       -4.3345518899
 C        -8.2345704000        0.4495159638       -4.8486275027
 O        -7.5944437819        1.4184652359       -4.5820235842
 C        -9.6903250219        0.5090309120       -5.6066419052
 C       -10.5402195555        1.5377688064       -4.7204965570
 O       -10.5315232346        1.3931689247       -3.5641380457
 C       -11.3230817809        2.6728460694       -5.3959494668
 C       -11.8511487848        3.9423647339       -4.3188556205
 C       -10.9725269327        4.1838295493       -3.0028671836
 O       -11.5020463824        4.0004436350       -1.9199934148
 C        -9.5552110320        4.8660259468       -2.9265501893
 C        -8.6815366395        4.1593683221       -1.8803347698
 O        -8.7392348876        2.9630055683       -1.7555199076
 C        -7.5725920575        4.8814625831       -1.1309386427
 C        -8.2509609856        5.4400618421        0.1422227581
 C        -9.4819325141        4.7224306934        0.9410148319
 O        -9.8912385762        3.6011738512        0.6836548516
 C       -10.1727288378        5.7159701742        1.9023815009
 C       -10.6144133117        7.0166789186        1.1971948480
 O       -10.6088208523        7.3703305274       -0.0012513628
 C       -11.3732673096        7.9560522519        2.2754363082
 C       -10.9645517151        9.4830345294        2.2479349796
 C       -10.1582535025       10.1923908477        3.4084306971
 O        -9.5388180646        9.4691121853        4.1527277164
 C        -9.9749012032       11.7232725793        3.6057812185
 C       -11.1144407332       12.3911712946        4.3543775831
 O       -11.6642013347       11.8996522956        5.2465013038
 C       -11.6473535003       13.8323911211        4.0197767087
 C        -8.5996976746       11.8601492564        4.5030295222
 C        -9.5536528794       12.1774862898        2.1350945847
 C       -11.5004244092        4.9352571590        2.3258295671
 C        -9.2821003963        6.0349993065        3.1945633415
 C        -8.7871829056        4.7374892908       -4.3011737543
 C       -10.0685893555        6.3496831032       -2.6792767236
 C        -9.2633317704        0.8727109434       -7.0115479353
 C       -10.4465340627       -0.8138297430       -5.5922104573
 C        -6.7007440241        0.5283245263       -0.3047604791
 C        -6.0917285587       -1.9991800512        0.0345256492
 C       -13.9897217734       -0.3817208293        1.5360169105
 C       -12.8536166029       -0.5227706031        3.7943045959
 H       -11.4260548005       -2.7586863779        0.0286307213
 H       -12.9960403473       -1.9463344902       -0.1613367556
 H       -12.7346777635       -3.7223223052        0.2825149598
 H       -10.2483934087       -1.1271539427        2.8583621792
 H       -10.3040484912        0.6187791858        3.1846288747
 H        -8.1360642118        0.5767037960        2.1360302968
 H        -9.1646879047        0.9051961646        0.6559568013
 H        -6.1066287794       -1.4282958309       -2.7486020752
 H        -6.7937100989        0.2073036353       -2.8182663208
 H        -8.2540344892       -1.7994645587       -4.3497705425
 H        -6.8615274129       -1.0010692038       -5.1977562590
 H       -12.2496341970        2.3462039320       -5.8078843973
 H       -10.5994708881        2.9673462238       -6.1707451528
 H       -12.8480414385        3.6802028809       -4.0369378893
 H       -12.0078700714        4.9337578132       -4.7207697009
 H        -6.9859402723        5.6632821593       -1.5503451628
 H        -6.8996122268        4.0312846441       -0.9183476990
 H        -8.6938275178        6.4117397742       -0.2184599241
 H        -7.5869299542        5.8112488019        0.9288423095
 H       -11.4232482286        7.6582817462        3.2833749670
 H       -12.3969379594        7.9286601447        1.9257229858
 H       -11.8268976400       10.1924088999        2.2705078905
 H       -10.3180212443        9.7613890064        1.5118905418
 H       -11.9598621140       14.3696124183        4.8684327668
 H       -12.5833438997       13.5286619144        3.5836933674
 H       -11.1635822042       14.4511492257        3.2123120500
 H        -7.8016617483       11.9458629578        3.7352772432
 H        -8.6602828432       11.0033317048        5.1779714961
 H        -8.5207066946       12.7914335494        5.1874875765
 H        -9.2687009949       13.1829565334        2.2167853761
 H       -10.2590852564       11.9472688090        1.3930896456
 H        -8.7236699363       11.6179134214        1.9031962216
 H       -11.3984094420        3.9613607263        2.9451407567
 H       -12.0361038837        4.5412647372        1.4665194352
 H       -12.2207047582        5.5769045009        2.8612916983
 H        -8.3824736084        6.5706387681        2.8329237764
 H        -8.8976002652        5.1008127579        3.5576229869
 H        -9.7910617918        6.7459978582        3.9684272059
 H        -7.7276589393        4.4997267898       -4.3057317508
 H        -8.8848487937        5.7185714038       -4.8275499754
 H        -9.0714820823        3.8492075522       -4.8398828026
 H       -10.1875584529        6.8164120792       -3.6184857720
 H        -9.3257266790        7.0154941638       -2.2128391058
 H       -10.9541694918        6.3235473659       -2.0215711422
 H        -8.3469200853        1.4922967895       -7.0409652578
 H       -10.0023046747        1.4811627560       -7.5339016640
 H        -9.1403478843       -0.0550961938       -7.4844350708
 H        -9.9599663672       -1.3796786976       -6.4044475178
 H       -11.5510766867       -0.7910215750       -5.9039279330
 H       -10.4198670142       -1.2883227127       -4.6930111782
 H        -5.8003677758        0.6500237207       -0.8653441663
 H        -6.2005919712        0.8104012341        0.6497226174
 H        -7.5068282802        1.2032338157       -0.4446094956
 H        -5.3862990094       -1.7300200471        0.7477575484
 H        -5.4971824282       -2.1747880845       -0.8779412584
 H        -6.4762374236       -3.0098995877        0.2376472364
 H       -13.8169222186        0.2940472545        0.6286275022
 H       -14.6914210086        0.0263765149        2.1573833948
 H       -14.5239092916       -1.2469777608        1.1677227429
 H       -13.0862656511        0.5286095870        4.0506257370
 H       -12.0269171211       -0.9521528210        4.3734977618
 H       -13.7189554882       -1.0529178780        4.0938618832
 Na      -10.5873692628        1.8840946304       -1.2550821351
