117

 C       -13.2670615594       -3.2127329018        0.7645933816
 C       -12.6848493503       -2.4641155136        1.9123161470
 O       -11.7999853448       -2.8775918388        2.6554098924
 C       -13.1518722243       -0.8729963123        2.1958230822
 C       -12.0500312508       -0.0427014871        1.5921388468
 O       -12.2542083035        0.7924308415        0.7271125566
 C       -10.6743506010       -0.0042290996        2.2723255837
 C        -9.2769138485        0.3450931011        1.4627463907
 C        -8.5596649251       -0.9857236144        0.7922123486
 O        -9.1596367506       -2.0481698687        0.7950530939
 C        -7.3736089352       -0.8421380942       -0.1888856436
 C        -8.0154240015       -1.3172926651       -1.5142460339
 O        -9.2488165781       -1.4537694946       -1.5770998756
 C        -7.1398810038       -1.5767155497       -2.7621488653
 C        -7.9846563608       -1.6049517627       -4.1389952739
 C        -8.0591505717       -0.1549499203       -4.6848975756
 O        -7.1754091861        0.6197773433       -4.4874584026
 C        -9.3871300483        0.3667503603       -5.3927576305
 C       -10.2398136947        1.3420345153       -4.4426657213
 O       -10.1886534511        1.1361778745       -3.2383166984
 C       -10.9784873977        2.3508482205       -5.1820902090
 C       -11.5737305429        3.5912318408       -4.4234682945
 C       -10.8949260964        3.9423245155       -3.2013687986
 O       -11.4057705730        3.6152280998       -2.1042663950
 C        -9.4885207775        4.7135096763       -3.1582256196
 C        -8.6441283922        4.2391760667       -1.9855957874
 O        -8.5942459495        3.0251300807       -1.8231321082
 C        -7.7157822208        5.1086632062       -1.2345340416
 C        -8.1032685912        5.8201209540       -0.0264158320
 C        -9.2402774127        5.0931293181        0.8459417039
 O        -9.6548623474        3.9802322176        0.6936621075
 C        -9.9039641944        6.0034170357        2.0983052623
 C       -10.2354256060        7.5498504930        1.7438089446
 O        -9.6569078311        8.0819642371        0.8465482043
 C       -11.3981014472        8.2615110556        2.6125061043
 C       -11.0725824770        9.8561148580        2.4373945700
 C        -9.9093954277       10.5259125786        3.0895487351
 O        -9.0516612954        9.6936531018        3.4700412030
 C        -9.7509165275       12.0736636704        3.2075005193
 C       -11.1035361937       12.5384456355        4.0625622655
 O       -11.5794205351       11.7451015805        4.7511338051
 C       -11.3536234138       14.0491887968        4.2069839346
 C        -8.5088029321       12.3508436315        4.0973890701
 C        -9.6067310948       12.4536074723        1.7514609833
 C       -11.2601306637        5.3530137729        2.2238221358
 C        -9.0821550336        5.8938579380        3.4209615051
 C        -8.6910974053        4.7293506951       -4.4505947974
 C       -10.0871330616        6.1795836138       -2.9037487432
 C        -8.8891296130        1.0543884024       -6.6933912151
 C       -10.1762479780       -0.9534044929       -5.9297984081
 C        -6.8058635145        0.6061065654       -0.4435104242
 C        -6.3617364956       -1.7863742896        0.5147777090
 C       -14.5333670415       -0.5162238905        1.5958043392
 C       -13.1217676078       -0.7674694162        3.7269917982
 H       -12.5122090761       -3.4653414611        0.0192888359
 H       -14.1276405695       -2.7904207193        0.1545501297
 H       -13.2124724941       -4.2317341810        1.1485769849
 H       -10.3749128131       -1.0365307993        2.4694165875
 H       -10.7965740263        0.5126233486        3.1462105421
 H        -8.6949521631        0.4638463810        2.3721549205
 H        -9.1187605897        1.2470945402        0.7529589590
 H        -6.9771923191       -2.6552921776       -2.7781217030
 H        -6.1683409352       -1.1436029653       -2.8111852805
 H        -8.9663073022       -2.0167644477       -4.1619988975
 H        -7.3522821705       -2.3887567898       -4.7816573678
 H       -11.8367808195        1.7695870790       -5.5768194357
 H       -10.2972000031        2.7674005144       -5.9811530213
 H       -12.5886126864        3.4754606039       -4.2178241748
 H       -11.7470486876        4.3983978760       -5.1804615063
 H        -7.3011318600        5.6807047241       -2.0780658540
 H        -6.9877552213        4.4677428299       -0.7588219088
 H        -8.5396817629        6.8019159618       -0.1075487902
 H        -7.2610490687        6.0940373203        0.5533778300
 H       -11.2143637226        7.8243748950        3.5672505808
 H       -12.4743400925        8.1668665105        2.3368216711
 H       -12.0396735109       10.3659235999        2.6296280833
 H       -10.9241461847        9.8201944405        1.3854341774
 H       -11.9230654584       14.4892163085        5.0100621323
 H       -11.8277325452       14.3059934599        3.3010762894
 H       -10.3562574654       14.6094094081        4.1419337970
 H        -7.7692047469       12.5332094173        3.3330573155
 H        -8.4245068702       11.4966485048        4.6873694755
 H        -8.7084448901       13.0315956051        4.9789133991
 H        -9.4483168115       13.5255157516        1.7071540012
 H       -10.4706149747       12.0578680288        1.2145687955
 H        -8.7314502328       11.9792512155        1.3622436613
 H       -11.1706791052        4.2994015556        2.1765559092
 H       -11.9279766148        5.4992461646        1.2488903442
 H       -11.8634942665        5.6435451583        3.0710124302
 H        -8.5117560189        6.6819602846        3.8445367589
 H        -8.6368445003        4.9278837078        3.3337978415
 H        -9.8688266286        5.7994765921        4.2579760507
 H        -8.5512595730        5.6463573048       -4.9213523791
 H        -9.1371196153        4.1115369404       -5.1868977632
 H        -7.7078418955        4.4490795278       -4.1826260874
 H       -11.1867851059        6.0859224092       -3.0583357174
 H        -9.7414206901        6.9695850166       -3.6375122896
 H        -9.9945254582        6.4618115200       -1.8068101577
 H        -8.5164907660        2.0504335341       -6.3157857336
 H        -9.7893445899        1.1251277619       -7.3595727061
 H        -8.0701559598        0.5653068726       -7.2373141153
 H        -9.4003172003       -1.7441235846       -6.1821033869
 H       -10.8878204504       -0.7843041964       -6.8135127180
 H       -10.8317024402       -1.4626697441       -5.2752353089
 H        -5.7829538269        0.6118548401       -0.9219734733
 H        -6.8309865263        1.1797889022        0.5560425790
 H        -7.4056393466        1.2263517713       -1.1208173827
 H        -6.5199849771       -2.0223325226        1.5862362922
 H        -5.3251290620       -1.3988177843        0.3625949654
 H        -6.2485391345       -2.7638573276        0.0475422450
 H       -14.8110185443       -1.0720031448        0.6807675094
 H       -14.5154025471        0.4235425111        1.1417937600
 H       -15.3021324050       -0.4985977760        2.3627041739
 H       -13.0904775534        0.2501312800        4.0997366641
 H       -12.2230441979       -1.3065248718        4.0227331795
 H       -14.0381805350       -1.2905966969        4.1238633390
 Na      -10.7929102594        1.5785178167       -0.8945478998
