117

 C       -13.4758406472       -3.3656301256        0.8767254112
 C       -12.8059868022       -2.5186642909        1.9432924210
 O       -11.8120414982       -2.8851798111        2.5266804822
 C       -13.1992898692       -0.9497864445        2.1934936866
 C       -12.0219041998       -0.0092315297        1.5214357402
 O       -12.3671212767        0.8018726023        0.6777913275
 C       -10.6856480290       -0.0473317968        2.3477138259
 C        -9.3945378091        0.3246063044        1.5067098227
 C        -8.9090964626       -0.8962027439        0.7070638700
 O        -9.5071091619       -1.9297618931        0.8598688612
 C        -7.4534493546       -0.8561450592       -0.1076504065
 C        -8.0242342210       -1.4891499827       -1.4324214536
 O        -9.2096083969       -1.2622618911       -1.7003128432
 C        -7.0786146148       -1.9216964515       -2.6505606970
 C        -7.9718797445       -1.7574982708       -3.8936805738
 C        -8.0232135280       -0.3200872278       -4.4922231851
 O        -7.0849038730        0.4818085153       -4.5621236466
 C        -9.2616035147        0.2438029794       -5.4227813767
 C       -10.2327607767        1.1583030641       -4.4967754765
 O       -10.2765704167        1.1312800351       -3.2677695984
 C       -11.1064500707        2.3487625983       -5.3065012160
 C       -11.5474142033        3.4658785551       -4.3837308803
 C       -10.7960195922        3.7033275165       -3.1502723452
 O       -11.2589474270        3.5536990756       -1.9986675569
 C        -9.5303096139        4.6788514430       -3.1179090722
 C        -8.5666446534        4.1497663994       -1.9010493920
 O        -8.6289303912        2.9411742506       -1.7216486186
 C        -7.6196357676        5.1522958956       -1.2203383630
 C        -8.2930989857        5.9872616728       -0.0509556657
 C        -9.2654003698        5.2907129285        0.9536180675
 O        -9.5946364465        4.1838449307        0.6045742378
 C        -9.9035417475        5.9888715648        2.1102231486
 C        -9.9806122427        7.7086167599        1.8981289655
 O        -9.4391632593        8.1833459049        0.9351258181
 C       -11.0794183694        8.3345519077        2.6229584500
 C       -11.2217716597        9.7998860930        2.5606662008
 C        -9.8514207584       10.3519374488        3.1809823620
 O        -8.8525204566        9.6914268683        3.3103566098
 C        -9.6911163129       11.9570451126        3.1256573033
 C       -10.8982797663       12.5956399683        3.9650325745
 O       -11.6631407053       11.7565775740        4.5093079860
 C       -11.3904769453       14.0476987198        4.3029393222
 C        -8.4553638566       12.4584152801        3.8253382854
 C        -9.6114745722       12.5209968685        1.6413701299
 C       -11.4011630659        5.5710412842        2.1459269707
 C        -8.9571842007        5.9968213050        3.3792784524
 C        -8.5684764141        4.7752671364       -4.3707500025
 C       -10.3178632946        6.1056976475       -2.9293620107
 C        -8.7209328060        1.0608806829       -6.6356078745
 C       -10.1175288208       -0.9010375479       -6.0417139042
 C        -6.8378644805        0.4055026400       -0.6065897996
 C        -6.3002988364       -1.6462317904        0.6229080280
 C       -14.6085243218       -0.5956776103        1.6205913813
 C       -13.2589243560       -0.7029478591        3.7257979306
 H       -12.9195045680       -3.4785824087       -0.1109156289
 H       -14.3872801696       -2.9201723035        0.5781635939
 H       -13.4145309629       -4.4277109511        1.1527125485
 H       -10.5570602677       -0.9064315324        3.0138596356
 H       -10.9096649985        0.8176054280        2.9410407142
 H        -8.5278809668        0.6759989723        2.1600115983
 H        -9.7136739014        1.0756736062        0.8769653177
 H        -6.6778287441       -2.8989183500       -2.7205383649
 H        -6.2382601259       -1.3181533436       -2.6381623416
 H        -8.9978293138       -2.0666581911       -3.8437271743
 H        -7.6481293521       -2.3472975957       -4.8300641504
 H       -12.0151617471        1.8413181313       -5.6437181840
 H       -10.5714800426        2.8055396842       -6.0691722184
 H       -12.5793171911        3.4881781701       -4.1966371870
 H       -11.5252124845        4.3241881228       -5.0601653805
 H        -7.3974102463        5.9262869353       -2.0360359722
 H        -6.7773759507        4.7306438354       -0.8153419756
 H        -8.9247525209        6.7890793584       -0.4626169877
 H        -7.5140138776        6.6553472269        0.4433673839
 H       -11.0391946836        8.1166825801        3.6710249336
 H       -11.9498689422        7.8628919416        2.2076527557
 H       -12.0535443708        9.9150341521        3.1759027800
 H       -11.4083025928       10.2646047938        1.5082785946
 H       -12.3575159967       14.0211702891        4.8986613012
 H       -11.5954098473       14.7176078934        3.4894978780
 H       -10.7261358214       14.4834004125        4.9945463982
 H        -7.7301401576       12.3602789681        3.0069830803
 H        -8.3127187890       11.9440574733        4.7946380702
 H        -8.6938026330       13.4496245468        4.2509939077
 H        -9.6911930437       13.5622327530        1.6040078141
 H       -10.3314232956       12.0276326467        1.0617684284
 H        -8.6430601423       12.2761229101        1.2971637827
 H       -11.5943270591        4.5251698033        2.1792287092
 H       -12.0165336292        5.8592703146        1.2280898644
 H       -11.8741410970        6.0235877806        3.0578564102
 H        -8.0744532099        6.6505829693        3.2825289730
 H        -8.7130888728        4.8800384820        3.5377056970
 H        -9.3826842126        6.4313548815        4.2464697964
 H        -8.4130854852        5.7584192101       -4.8307406534
 H        -8.8282345943        4.0430170624       -5.1317274237
 H        -7.5524822125        4.5188528365       -3.9243634765
 H       -11.4515296370        6.0448860155       -3.0262909522
 H        -9.8749226540        6.8262742630       -3.6408416503
 H       -10.1273584858        6.4177994360       -1.9064670043
 H        -8.0724289241        1.7780616154       -6.1744236051
 H        -9.5489720812        1.4569692508       -7.2223281671
 H        -8.0784120985        0.4478246782       -7.3371531474
 H        -9.4954859833       -1.5781165803       -6.5964317039
 H       -10.9535383920       -0.6295000647       -6.5658036883
 H       -10.5336212084       -1.6658693391       -5.2033661951
 H        -5.9119145801        0.1490277231       -1.2012310976
 H        -6.6902729747        1.2026487116        0.1069914039
 H        -7.4334095934        0.8330025703       -1.4318360353
 H        -6.2144104835       -1.4664084435        1.7411986162
 H        -5.3862693723       -1.4270952648        0.1450335199
 H        -6.3690033235       -2.6967535815        0.5761202217
 H       -14.9124839970       -1.0556041793        0.7717279428
 H       -14.6100273394        0.4355796208        1.2084472438
 H       -15.3554835179       -0.6671690069        2.4165951762
 H       -13.4421293158        0.3261982840        3.8852349015
 H       -12.2902401682       -0.9407695839        4.1540731937
 H       -14.0916212535       -1.3320569366        4.2093049898
 Na      -10.7129131116        1.7742438062       -0.9081597064
