117

 C       -13.7983945781       -3.3715502990        1.2021229371
 C       -12.8683839721       -2.3897289384        1.9961934773
 O       -11.8422915624       -2.8561984046        2.4589257367
 C       -13.2480948118       -0.8694810998        2.1005664120
 C       -12.0769556470       -0.0936209725        1.4499780301
 O       -12.1529909936        0.5643695393        0.3823558369
 C       -10.7593803218        0.0917264829        2.4653511564
 C        -9.4777891894        0.3548604983        1.6376339378
 C        -9.0716008235       -0.8298427194        0.7739242189
 O        -9.7027028209       -1.8629896464        0.8399704355
 C        -7.7885326508       -0.8893947833       -0.0581782516
 C        -8.2818410708       -1.4467065736       -1.5616231193
 O        -9.3940350228       -1.0845220404       -1.8760908630
 C        -7.3942838147       -2.1151897391       -2.6527672419
 C        -7.9230839749       -2.0866599828       -4.0304374933
 C        -7.9164132641       -0.5332244080       -4.5296956959
 O        -6.9408085816        0.0940927960       -4.2400486837
 C        -9.0375647711        0.0735489304       -5.3649646440
 C       -10.1208236979        1.1101087213       -4.5056725882
 O       -10.3185864947        0.8669244731       -3.3327848508
 C       -10.9640904573        2.0837047270       -5.3085443413
 C       -11.5355879036        3.2069041261       -4.4216611895
 C       -10.8322334039        3.6091138719       -3.1215965026
 O       -11.5109152575        3.4442597390       -2.1282138133
 C        -9.5908256754        4.6408098108       -3.0193890824
 C        -8.6073462996        4.2006919116       -1.8011298219
 O        -8.5562765346        3.0355791746       -1.3970935163
 C        -7.5565481328        5.2190529979       -1.1180720002
 C        -8.2785990717        6.2510345489       -0.1824319602
 C        -9.2923497783        5.5004908617        0.6436395514
 O        -9.6118868483        4.3101853838        0.5306692569
 C        -9.8641079648        6.2160597628        1.9218268544
 C        -9.9115712898        7.7516829666        1.7967822135
 O        -9.1673631300        8.4743212811        1.1781988305
 C       -11.0080492086        8.4101619911        2.6637508918
 C       -11.0048044653        9.9752578011        2.6192613043
 C        -9.6176057690       10.5727048809        3.0529612998
 O        -8.5494210844        9.9515490819        3.3104076853
 C        -9.7029514684       12.0115272610        2.9987695028
 C       -10.9796724122       12.5708411998        3.9435971341
 O       -11.8066886514       11.8846883566        4.3522267346
 C       -10.8304014839       14.0286598520        4.1554548127
 C        -8.3949468397       12.5744567831        3.5807622126
 C       -10.0078132411       12.6991053619        1.6262428691
 C       -11.1984273154        5.5108415540        2.4425620529
 C        -8.8962686499        5.9002378391        3.0594530453
 C        -8.6777707846        4.5295778903       -4.2427000216
 C       -10.1844531573        6.0524711543       -2.8112150494
 C        -8.2708726280        0.9500693818       -6.5231937112
 C       -10.0475642258       -0.9552158031       -5.9779023836
 C        -7.2633647068        0.6118412967       -0.3817068931
 C        -6.7598178039       -1.7638621617        0.7395357390
 C       -14.5804346873       -0.5606542163        1.4350135947
 C       -13.4022096672       -0.7282266247        3.7072337110
 H       -13.8263211544       -3.0262765837        0.2093928734
 H       -14.8523467148       -3.1846997038        1.4279208467
 H       -13.4205589250       -4.3628532255        1.0940547603
 H       -10.5959029847       -0.9053562969        2.9514250346
 H       -10.9137625244        0.8517371351        3.3044658598
 H        -8.5860641402        0.4122903615        2.2075395360
 H        -9.6344956210        1.4072360934        1.1446722426
 H        -7.2114852997       -3.1838742090       -2.2669346232
 H        -6.2652907006       -1.7580605431       -2.6751395914
 H        -8.9270710367       -2.4791527208       -4.1014000705
 H        -7.5532076218       -2.5807201056       -4.9147800081
 H       -11.7091394260        1.4563101879       -5.7630585117
 H       -10.2341764845        2.5400076962       -6.0638663774
 H       -12.5749833813        2.8946215301       -4.0490906577
 H       -11.7957290372        4.0366157600       -5.1420387745
 H        -7.0636969401        5.9811917729       -1.6787087979
 H        -6.8497468159        4.5108112471       -0.5319143006
 H        -8.6923773925        6.9955364106       -0.8990272178
 H        -7.6698373796        6.8898763877        0.4163576111
 H       -10.7385725457        8.3179869464        3.7709198123
 H       -11.9304426504        7.7555120015        2.3822022877
 H       -11.8402696697       10.2200364963        3.3808322915
 H       -11.1846890529       10.4768026016        1.6984368924
 H       -11.6678266711       14.4298320174        3.6624000431
 H       -10.0074961310       14.5246717719        3.6562160241
 H       -11.0496637224       14.3096730719        5.2315399205
 H        -7.7504887488       11.7080586337        3.6268916011
 H        -8.6433639167       13.0348704404        4.4914881799
 H        -8.0876396277       13.4128030956        2.9637113322
 H        -9.9409764788       13.7800390787        1.8912482563
 H       -11.0491257322       12.5283438485        1.2641923853
 H        -9.2198941968       12.5113224958        0.8920229743
 H       -10.9123717728        4.4404633156        2.2750114025
 H       -12.0959761254        5.6352254831        1.8164119794
 H       -11.4407348761        5.4965806742        3.4697327840
 H        -7.9201477586        5.7843484616        2.6079836026
 H        -9.2154344274        5.1118383421        3.6403041865
 H        -8.6251042634        6.8047490402        3.7076244701
 H        -8.6881654393        5.5738494863       -4.6430992782
 H        -8.9717719152        3.7735155548       -5.0797294561
 H        -7.6156833706        4.3498264987       -3.9503827084
 H       -10.8659327120        6.2516197520       -3.5603344790
 H        -9.3611303091        6.7546946819       -2.7478723614
 H       -10.7317149010        5.9824927921       -1.8772691860
 H        -7.6170034371        1.6906717806       -6.0794112753
 H        -8.9696855679        1.1874818639       -7.3008660776
 H        -7.5962808256        0.2786568475       -6.9295187454
 H        -9.6812627668       -1.5442867781       -6.8228831175
 H       -10.9414757084       -0.3715781351       -6.3811883824
 H       -10.3607141613       -1.7232755225       -5.4113793298
 H        -6.5713021563        0.5543533233       -1.1527456290
 H        -6.9102756045        1.0641326282        0.5395805353
 H        -7.8908594894        1.2698360472       -0.8665669426
 H        -6.0012577276       -1.1610882636        1.1502435313
 H        -6.2776707125       -2.4498276792        0.0071464816
 H        -7.1382978649       -2.2936624062        1.6178264060
 H       -14.4066230686       -0.3830646852        0.2990044292
 H       -15.0717955474        0.3444161063        1.6915157763
 H       -15.2415388237       -1.4322683835        1.5372422963
 H       -13.7634512062        0.2740164882        4.0089032329
 H       -12.4839611930       -0.9394181074        4.2232939572
 H       -14.1049668476       -1.4897936319        3.9001769164
 Na      -10.5105517415        1.8341507434       -0.8433057820
