117

 C       -13.9465687187       -3.2885730032        1.3487711499
 C       -12.8486302711       -2.3927897905        1.9131201837
 O       -11.8407656458       -2.7121873146        2.5307447657
 C       -13.2569365213       -0.9157312862        2.0059476844
 C       -12.0408102918       -0.1242161325        1.4735858636
 O       -11.9990677593        0.3356183871        0.3899769267
 C       -10.8008840037        0.1405347436        2.4189422702
 C        -9.4471894473        0.2799645331        1.7665541305
 C        -9.1381912966       -0.9136671542        0.7376462004
 O        -9.8618763152       -1.8784023964        0.8411575944
 C        -7.9191015847       -0.8402335711       -0.1803135686
 C        -8.4550949202       -1.2816849024       -1.5708119938
 O        -9.6267093741       -1.0350463697       -1.9431668992
 C        -7.5660869961       -2.1671526044       -2.4672296693
 C        -7.9781633595       -2.1826398958       -3.9190927557
 C        -7.8913432501       -0.7052507782       -4.4482013220
 O        -6.9656157802        0.0013449311       -4.0396916020
 C        -9.0201263446        0.0272385611       -5.3399665952
 C        -9.9357826246        0.9604508249       -4.4152693313
 O       -10.1640587365        0.7751007591       -3.2492125368
 C       -10.6168837034        2.0799514331       -5.2709967453
 C       -11.4832305168        3.1442120769       -4.4882273837
 C       -11.0426360765        3.6362911918       -3.1355740388
 O       -11.6629696533        3.4302951508       -2.0670196833
 C        -9.5894517423        4.5586651047       -3.0482369837
 C        -8.6048016370        4.1962862895       -1.7917609984
 O        -8.6087444431        3.0014600053       -1.4505462627
 C        -7.6645593484        5.2526542491       -1.2844695526
 C        -8.2500622331        6.2240375492       -0.1630238370
 C        -9.3155760525        5.5085073551        0.6789171263
 O        -9.6821091543        4.4248381579        0.3501332849
 C        -9.7925391598        6.1702343888        2.0006508342
 C        -9.9855597207        7.7869399431        1.8950822827
 O        -9.1837667269        8.3663454763        1.1842774481
 C       -11.0789267030        8.3917490976        2.7268554211
 C       -10.8604445783        9.8613575681        2.4888758155
 C        -9.5778394881       10.6586133265        2.9565923023
 O        -8.6100181296       10.0154322354        3.3659778839
 C        -9.7172661624       12.2172453476        3.0700229223
 C       -10.8091642520       12.8317459912        3.9855291675
 O       -11.7579254303       12.1540302389        4.3541335419
 C       -10.7296284830       14.3255540040        4.2241514425
 C        -8.3134564254       12.7729640859        3.5001964747
 C       -10.1836658561       12.7397201148        1.5893111163
 C       -11.1661685940        5.4878529635        2.4266689064
 C        -8.5011675188        5.8811633407        2.9591139121
 C        -8.6936562924        4.4296472753       -4.3388574858
 C       -10.0871574101        5.9578493747       -2.7484578630
 C        -8.2404249054        0.8368583543       -6.4353745640
 C        -9.8906171331       -0.9355635900       -6.0521028091
 C        -7.3357269786        0.5870509142       -0.1243400834
 C        -7.0064047756       -1.8052291509        0.5090699727
 C       -14.4838398069       -0.4203435180        1.2750520836
 C       -13.4532161995       -0.6781162233        3.5509391972
 H       -14.4401528012       -2.8634787652        0.4559994120
 H       -14.7919516011       -3.3605492866        1.9844887512
 H       -13.4251728386       -4.1987064546        1.0196043544
 H       -10.7453644428       -0.7624727296        3.1077261264
 H       -10.9801481784        0.9581581335        3.0466526825
 H        -8.6607824199        0.3587503335        2.5565634668
 H        -9.4621941435        1.2457649310        1.2869180517
 H        -7.5780669206       -3.2409428969       -2.0465250336
 H        -6.4888472623       -2.0046274968       -2.5223221324
 H        -8.8755431606       -2.6438910766       -4.2663747826
 H        -7.3063057883       -2.6640096718       -4.7610390321
 H       -11.3002725473        1.4105526614       -5.8972519572
 H        -9.8161757747        2.5086572206       -5.9177623980
 H       -12.4846508303        2.7789780714       -4.5260005625
 H       -11.5154616684        4.1101335257       -5.1567797820
 H        -7.2571939967        6.0292450347       -2.0210778442
 H        -6.8623216993        4.7359974462       -0.7807226077
 H        -8.6179256689        7.1272324970       -0.6033999487
 H        -7.4305559624        6.6033706090        0.3892585026
 H       -10.9634696652        8.1665867697        3.8186637819
 H       -11.9454438397        7.9187913453        2.2357720343
 H       -11.6861285831       10.4034773300        2.9501726362
 H       -10.9360551309       10.0799445250        1.3714902463
 H       -11.1435176511       14.9417836617        3.3663167692
 H        -9.7439964249       14.6754604560        4.2989105576
 H       -11.3881768508       14.6012277014        5.0794022653
 H        -7.8377000127       11.8539325710        3.7798954981
 H        -8.3144493233       13.4649201665        4.3053690607
 H        -7.9166283554       13.2657550341        2.5800991271
 H       -10.0454554259       13.8699672644        1.5270260204
 H       -11.3014935830       12.5480166331        1.5395337580
 H        -9.5782068542       12.2431914970        0.7858783185
 H       -11.2692675343        4.4585621660        2.4111973794
 H       -11.8919267547        5.9575107906        1.6368507463
 H       -11.5072854069        5.7139567172        3.4427750974
 H        -7.6437244331        5.8807806544        2.3389899297
 H        -8.6254419102        5.0527070508        3.6503949105
 H        -8.3349313177        6.7871762018        3.5641057013
 H        -8.7616013675        5.3942718438       -4.7378528049
 H        -8.9889637219        3.7310756524       -5.0289634768
 H        -7.6331385287        4.1920503921       -4.1606710669
 H       -10.2360614581        6.3046861135       -3.7461762226
 H        -9.3729240146        6.5339765927       -2.1716908587
 H       -11.0590823454        5.9671431064       -2.2858273332
 H        -7.6690128974        1.6558908626       -6.0346983683
 H        -8.9652265629        0.9859165402       -7.2113374782
 H        -7.4894598524        0.1183031610       -6.8319422084
 H        -9.3253793527       -1.7456737694       -6.5190478883
 H       -10.5542106599       -0.5391324707       -6.8003327032
 H       -10.4962571008       -1.6709232976       -5.3031348289
 H        -6.4888672300        0.7565616400       -0.7923155504
 H        -7.1273579117        0.6630758101        0.9340723189
 H        -7.8958402962        1.4306436576       -0.4911693197
 H        -5.9392296609       -1.5045674389        0.9061096419
 H        -6.9336794420       -2.7272795154       -0.0770147137
 H        -7.4813173919       -2.0299967104        1.4432956222
 H       -14.2100795163        0.0344166021        0.3402923563
 H       -15.0025281653        0.4023472466        1.7836011355
 H       -15.2015041036       -1.2574569895        1.0205939277
 H       -13.6109784497        0.3288297522        3.7863071960
 H       -12.5919895550       -1.0404795739        4.0662099135
 H       -14.3446575669       -1.3594478976        3.7921083772
 Na      -10.4488651374        1.6668502192       -0.8518661765
