117

 C       -13.9361509973       -3.4199359089        1.4637195360
 C       -12.9017007939       -2.4457503364        1.9022424667
 O       -11.9181916315       -2.8006366015        2.4850396797
 C       -13.2402953900       -0.7033243264        1.9564247811
 C       -11.9045171527        0.0183398517        1.5238062752
 O       -11.8504150165        0.1855138307        0.3128297607
 C       -10.8188174222        0.1296780497        2.5274562395
 C        -9.5100889946        0.2515001014        1.9252545715
 C        -9.4258428347       -0.9119023224        0.8020491934
 O       -10.0827502086       -1.9198816248        0.7733002546
 C        -8.0632512430       -0.8475857818       -0.0505336355
 C        -8.6122621297       -1.2069494618       -1.5128781630
 O        -9.7468771302       -1.0216347384       -1.8548069964
 C        -7.7297740239       -2.2545947852       -2.2966525393
 C        -8.0407926890       -2.1454145149       -3.8044590184
 C        -7.8809776829       -0.7243647275       -4.2636463753
 O        -6.9432792926       -0.0595235309       -3.8608373855
 C        -9.0120133846       -0.0978271386       -5.3103302934
 C        -9.7873306898        0.9036199129       -4.4602645846
 O        -9.9499069419        0.8803326157       -3.2749574514
 C       -10.5242227529        2.0833389001       -5.2705724770
 C       -11.3532023656        3.1066520275       -4.4781098076
 C       -10.8664124801        3.5707944149       -3.1353907448
 O       -11.6321569247        3.4183345620       -2.1952855086
 C        -9.7464184713        4.5490321404       -3.0898318094
 C        -8.7687470803        4.0926182556       -1.7589240356
 O        -8.5148674704        2.9317301258       -1.5442046449
 C        -7.7880352216        5.2074093506       -1.4790159035
 C        -8.1433414962        6.0752322057       -0.2161153014
 C        -9.2808434379        5.4699185047        0.6667097071
 O        -9.9695323354        4.5368193024        0.2202054146
 C        -9.6041752905        6.0900406979        2.0263577895
 C        -9.9251902533        7.6690263344        1.9638148942
 O        -9.2453885839        8.2191214411        1.1267259940
 C       -10.9811712476        8.5006073614        2.7227025956
 C       -10.9581813006       10.0257556786        2.3972023176
 C        -9.7569475012       10.7209665560        3.0683089739
 O        -8.7744124833       10.1468542266        3.4051585875
 C        -9.6116081076       12.4021447583        3.0104219874
 C       -10.6778568931       13.0857320206        4.0238312758
 O       -11.7198118520       12.4018399838        4.3994187779
 C       -10.7533507010       14.6268530457        4.3375791922
 C        -8.0788114151       12.9444008321        3.2533257328
 C       -10.1660258851       12.7525876802        1.6236911161
 C       -10.9007403015        5.4557284529        2.4751988557
 C        -8.3732172861        5.8780092614        3.0007380626
 C        -8.7186865524        4.4811592040       -4.2465490433
 C       -10.2454861568        6.0290922177       -2.9085314602
 C        -8.1402184137        0.7258475041       -6.2998491119
 C        -9.8370755882       -1.1227410966       -6.0846277169
 C        -7.2374834668        0.4568576600        0.0196631986
 C        -7.0532776737       -2.0212936129        0.2455648326
 C       -14.4563960543       -0.1989561725        1.0859966685
 C       -13.5584309764       -0.4915912536        3.4734973582
 H       -14.7371149591       -3.1425435543        0.7116687278
 H       -14.5565712276       -3.6414802325        2.3321820704
 H       -13.2482180075       -4.2421468318        1.1570306344
 H       -10.8735461011       -0.7093914880        3.1732872885
 H       -11.0956542668        0.9531406206        3.1356648159
 H        -8.6523153006        0.2568153456        2.6796039395
 H        -9.4451136402        1.1813643623        1.4623599580
 H        -7.8902840530       -3.2702517135       -2.0061695388
 H        -6.7060990484       -2.2017364775       -2.1857095786
 H        -9.0464236137       -2.4786930283       -4.1965248772
 H        -7.4435760055       -2.7672391586       -4.4982310966
 H       -11.1747092016        1.4864034448       -5.9892510095
 H        -9.7526615444        2.5171449201       -5.8560265622
 H       -12.3489890884        2.6858538993       -4.4235527770
 H       -11.4245699945        4.0341463008       -5.0526168001
 H        -7.5266718320        5.8613454914       -2.3705238285
 H        -6.9241472347        4.7316788871       -1.1358392903
 H        -8.3985593296        7.0942685507       -0.3788630743
 H        -7.1729683230        6.1377317399        0.3321871831
 H       -10.7524106644        8.3836626957        3.7507281611
 H       -11.8544545705        8.0153100046        2.4086017322
 H       -11.8439728565       10.4962618700        2.6648132684
 H       -10.9504030827        9.9902076606        1.2222149909
 H       -10.6547805304       15.3589639817        3.4796375703
 H        -9.8759423392       14.8990095155        4.9813695615
 H       -11.6551357483       14.8735482938        4.8066680071
 H        -7.6535888727       12.0636564541        3.7696805598
 H        -8.1558723971       13.7669695370        4.0619446881
 H        -7.6405219847       13.2945252536        2.3303880847
 H       -10.0638813873       13.8057653365        1.3070498519
 H       -11.2469296918       12.5676745084        1.7710324055
 H        -9.6914384422       12.0612875137        0.8693018376
 H       -11.1491442273        4.3913571210        2.6709935857
 H       -11.5437222644        5.8828903058        1.7610274838
 H       -11.1553265048        5.9210557231        3.4795243915
 H        -7.4315053673        6.0495824739        2.4090112746
 H        -8.4878676996        4.9096217325        3.5728244808
 H        -8.4628462692        6.5858246308        3.7766908027
 H        -8.7872963991        5.4084898162       -4.7345729653
 H        -8.8764445260        3.6129482964       -4.8709869436
 H        -7.7493196035        4.2316382155       -3.9718006428
 H       -10.2852841993        6.2505430578       -4.0160748424
 H        -9.4226804126        6.5426430987       -2.4033151097
 H       -11.2075160862        6.2289922348       -2.4478830419
 H        -7.6498882881        1.4971441966       -5.7114852585
 H        -8.9052753637        1.0616613476       -6.9959727410
 H        -7.3365360218        0.1356920086       -6.8652083614
 H        -9.3299903034       -2.1061530598       -6.2674855785
 H       -10.1980050386       -0.7859208210       -7.0663184631
 H       -10.6936410888       -1.5239651635       -5.4889040446
 H        -6.3600342348        0.5250991477       -0.6726300935
 H        -6.9947940890        0.6062638949        1.0653496378
 H        -7.7808378192        1.3449688033       -0.4117951632
 H        -6.0152059676       -1.8591169125       -0.1507748129
 H        -7.4498613414       -3.0039167611       -0.0293895800
 H        -6.8640158282       -1.9286562217        1.3429342482
 H       -14.2439120991        0.0709028599        0.0783495988
 H       -14.9481769035        0.6925910198        1.5721224081
 H       -15.1715191637       -0.9996815050        1.0082813001
 H       -13.4963158281        0.5404645931        3.7834028679
 H       -12.8117968306       -1.0786055621        4.0428301871
 H       -14.5418512424       -0.9314819092        3.6442573584
 Na      -10.4379324835        1.4345075767       -0.9704260868
