117

 C       -14.0128707526       -3.4595979910        1.4814501441
 C       -13.0636534418       -2.4169324758        2.0251769399
 O       -11.9644771517       -2.7180736573        2.4327393861
 C       -13.3569732589       -0.7361308829        1.9720630933
 C       -11.9579335001       -0.0503097761        1.5125579325
 O       -11.6653283709        0.2405711799        0.3173282678
 C       -10.9457075413        0.0961703405        2.6329979471
 C        -9.5353054542        0.1216152866        1.9479208834
 C        -9.2625847311       -1.0082721990        1.0080576733
 O       -10.1901259125       -1.7593816770        0.7890486320
 C        -8.0686559920       -1.0229802802        0.0107006701
 C        -8.7119681486       -1.4168182763       -1.4631191361
 O        -9.7804523577       -0.9364230697       -1.6774447166
 C        -7.9277497355       -2.3118535790       -2.2851502363
 C        -8.2263291121       -2.2360941057       -3.7648577462
 C        -7.9279262128       -0.7106235006       -4.2064103506
 O        -7.0229815594       -0.0670497833       -3.7759481943
 C        -8.8803410424       -0.1041879191       -5.2548552195
 C        -9.8006760124        0.9338480007       -4.5772209887
 O        -9.7303400573        1.0846967493       -3.3644643582
 C       -10.6187286999        1.9282931946       -5.4576674487
 C       -11.4118633949        2.9743824919       -4.6862912182
 C       -10.8938422817        3.5952032927       -3.1192207054
 O       -11.5270623751        3.2604004514       -2.1793780091
 C        -9.6829107089        4.6016668385       -3.0841283757
 C        -8.7491197444        4.1025307325       -1.8991285580
 O        -8.6696171733        2.9351718672       -1.6008267561
 C        -7.6725859012        5.1087886556       -1.4222650773
 C        -8.0258565475        5.8839143891       -0.1264838366
 C        -9.2990594168        5.4342231609        0.6381270224
 O       -10.1281509468        4.7224410534        0.0252788605
 C        -9.6007823486        6.0938126916        2.0952790306
 C        -9.7135797227        7.7425769300        1.8052304945
 O        -9.1757820740        8.4086815402        0.9045912982
 C       -10.8084941631        8.5706008377        2.7632692387
 C       -10.9552717695       10.1851524976        2.4305283087
 C        -9.7735074876       10.9447596648        3.1391393928
 O        -8.8913654445       10.2380314494        3.5721775811
 C        -9.7089878083       12.5289305267        2.9859712521
 C       -10.6580806786       13.2293219093        3.9980484091
 O       -11.5432676746       12.5932655219        4.4255218366
 C       -10.6104619072       14.7243094223        4.3675197233
 C        -8.2484909262       12.9160541900        3.0333205133
 C       -10.1126369090       12.9170275867        1.5590133895
 C       -10.7791662251        5.2575708148        2.7555414927
 C        -8.3835482500        5.8330812132        3.0970809140
 C        -8.6358309460        4.5934378727       -4.1682880281
 C       -10.4634413476        6.0158909485       -3.0290623620
 C        -7.8780243349        0.6381828384       -6.3159915290
 C        -9.7241249189       -1.2381032486       -5.9333163623
 C        -7.2283850372        0.2827271771        0.0276796833
 C        -7.1074213771       -2.2079468552        0.4012787196
 C       -14.3933172568       -0.2053955842        1.0017374405
 C       -13.7117864020       -0.2973407832        3.4310398952
 H       -14.7789681382       -3.0943326886        0.8147064870
 H       -14.6492534851       -3.7244094965        2.4055068452
 H       -13.3395575569       -4.2467540442        1.1238497960
 H       -10.9805679478       -0.6565316062        3.3357148660
 H       -11.2464036097        1.0386856519        3.1840752729
 H        -8.7885606481        0.0918995074        2.7452901516
 H        -9.2193285912        1.0495439914        1.3865276741
 H        -7.8930648705       -3.3193772645       -2.0491916154
 H        -6.8728436625       -2.1006736649       -2.0595304960
 H        -9.3014950987       -2.4045122907       -4.0226067581
 H        -7.7907934527       -3.0111137967       -4.2968479320
 H       -11.1800522464        1.3740531256       -6.1645523820
 H        -9.7692504420        2.3167296906       -6.0123818483
 H       -12.3310132697        2.3469286052       -4.4532491417
 H       -11.6474914448        3.7382451773       -5.3390547206
 H        -7.6640855069        5.8637621963       -2.1739768146
 H        -6.6129455381        4.7530989447       -1.3388744110
 H        -8.3919823823        6.9037656688       -0.4303158525
 H        -7.1273775471        6.1120472161        0.5109667178
 H       -10.3700971698        8.3720107914        3.6957414842
 H       -11.7138931595        8.0172667057        2.6168376449
 H       -11.9499169540       10.6370873144        2.7151352919
 H       -11.0189818954       10.0643612942        1.3795678292
 H       -10.0365382364       15.3474798143        3.7542254098
 H       -10.0794384357       14.8386317924        5.3551321391
 H       -11.6079848509       15.1640456622        4.3772625390
 H        -7.7413638808       12.1702721372        3.7132843066
 H        -8.2459435093       13.9282103060        3.5500836283
 H        -7.8919007080       12.9436911152        2.0020818760
 H        -9.9194995993       13.9561494763        1.3788817503
 H       -11.1614301004       12.7810383702        1.4155718004
 H        -9.4872885274       12.3047273278        0.9312480402
 H       -10.4847450465        4.1672408253        3.0165232065
 H       -11.6208998157        5.2359998670        2.1247345677
 H       -10.9790799992        5.6105483764        3.7658743108
 H        -7.4897962245        6.3583157874        2.6301649801
 H        -8.2361193095        4.7650870573        3.2892460804
 H        -8.7081960806        6.1655545700        4.1251545919
 H        -8.8135835267        5.4926495201       -4.7807268467
 H        -8.7528330539        3.5737132733       -4.6629581103
 H        -7.6334029464        4.4103876759       -3.8974551069
 H       -10.9253332578        6.0055845837       -4.0210467529
 H        -9.7778165358        6.8326532008       -2.7599144290
 H       -11.2649481648        5.9612651189       -2.2379202417
 H        -7.2912457227        1.3646258503       -5.7019760398
 H        -8.6253748212        1.1169755147       -6.9806549576
 H        -7.2191630388       -0.0115680504       -6.8645638043
 H        -9.3586284780       -2.2313686339       -6.1632672493
 H       -10.0131911974       -0.7877736590       -6.9340708072
 H       -10.5649304201       -1.4426787944       -5.4584596498
 H        -6.3873133468        0.3683502737       -0.6836395546
 H        -6.8791469463        0.4077020189        1.0926617612
 H        -7.8192520758        1.1507577946       -0.2807491903
 H        -6.5507408611       -2.5807688819       -0.3732484232
 H        -7.6489912057       -3.0762751406        0.8421430689
 H        -6.3744698369       -1.7777517231        1.1176912528
 H       -14.0247542488       -0.2998075809       -0.0756736134
 H       -14.5397440720        0.8326602247        1.2410193893
 H       -15.3170757175       -0.6980990424        0.9772132895
 H       -13.4585043758        0.8066313230        3.5144903128
 H       -13.0938628486       -0.8725681771        4.1411998288
 H       -14.7120476450       -0.4710392579        3.6075622126
 Na      -10.4149217393        1.2446683091       -1.1987692179
