117

 C       -14.1714679856       -3.3193358504        1.5015412774
 C       -13.1001513801       -2.2715096639        2.0048328665
 O       -12.0638329149       -2.6280587253        2.5156355012
 C       -13.3704204067       -0.6819603633        1.9295824663
 C       -11.9579291684       -0.2028388146        1.5570140605
 O       -11.9082433230        0.3526186688        0.4673779737
 C       -10.8561159651        0.0498837352        2.7145842252
 C        -9.3757334889        0.1569177813        2.1014084815
 C        -9.2713029202       -1.0754363883        1.0957317745
 O       -10.2092257260       -1.8196918631        0.8668323741
 C        -8.0476707055       -1.2227226723        0.1827861329
 C        -8.6777442310       -1.5126200907       -1.2827860353
 O        -9.7064221653       -0.9463736908       -1.6198173651
 C        -7.9537986227       -2.4082998170       -2.2553846700
 C        -8.4531133858       -2.1531793966       -3.6992876696
 C        -8.0111226520       -0.7554414045       -4.1895616254
 O        -7.0896635634       -0.2216303468       -3.6126416489
 C        -8.8020441443       -0.0413574161       -5.3888988210
 C        -9.6198095027        1.0725471070       -4.7471474302
 O        -9.5676460245        1.2389881942       -3.5420029469
 C       -10.6874933433        1.9269113533       -5.5130434815
 C       -11.4825258667        2.8862971511       -4.6231721608
 C       -10.8525866370        3.3596980985       -3.3572155332
 O       -11.3982843245        3.0744890168       -2.3114447644
 C        -9.7194738211        4.4807646567       -3.2112519008
 C        -8.8961029400        4.2147899233       -1.8835678234
 O        -8.8214614127        3.0306697807       -1.5261606175
 C        -7.6523068935        5.0595401463       -1.2190574250
 C        -7.9403553917        5.8312109024        0.0383798088
 C        -9.3123569184        5.5444246158        0.6094290020
 O       -10.1908761264        4.9776014365        0.0099255012
 C        -9.5829337122        6.1118257182        2.0462682201
 C        -9.7815399263        7.8352510824        1.7171075808
 O        -9.1527165232        8.2923921338        0.8555391892
 C       -10.6534349741        8.6496104383        2.7626983294
 C       -10.8454391733       10.0731025482        2.4852035123
 C        -9.7703878614       11.0000565745        3.0580754593
 O        -8.9247849369       10.5268646373        3.8504768614
 C        -9.7342131504       12.5508646488        2.7963851310
 C       -10.7086374085       13.2654161113        3.9610718762
 O       -11.5291107679       12.6703289791        4.5302344360
 C       -10.3378041520       14.7085451193        4.3307945004
 C        -8.1464423592       12.9512477014        3.0675080486
 C       -10.2626506200       13.1065854240        1.3523021670
 C       -10.6473461288        5.3584369975        2.7939173776
 C        -8.3484866558        5.9624074583        2.9699735802
 C        -8.7062421459        4.6636638704       -4.4014723531
 C       -10.5126257001        5.8601214856       -2.9860619450
 C        -7.7555351188        0.4702537872       -6.3578625456
 C        -9.6534818435       -1.1662155689       -6.0276681372
 C        -7.2693389219        0.0395444448       -0.0692153897
 C        -7.1162219998       -2.3927125666        0.8237131434
 C       -14.3949803572       -0.3567365550        0.8385049778
 C       -13.8113590769       -0.1795338587        3.2846340095
 H       -14.8832962427       -2.8471647469        0.8672665193
 H       -14.8079713760       -3.5984829233        2.3648831377
 H       -13.6173417616       -4.1192455889        1.0282905186
 H       -10.7735587147       -0.7146310147        3.5662904241
 H       -11.3025521878        0.9730423223        3.1732568464
 H        -8.7014712242       -0.0170542314        2.9088137385
 H        -8.9195214317        1.1152565372        1.6477915618
 H        -8.1161350539       -3.5328898124       -2.2284231107
 H        -6.8501547390       -2.4924433407       -2.0351866438
 H        -9.4537706878       -2.4031113465       -3.8873004612
 H        -7.9721780385       -2.9227999769       -4.3158288532
 H       -11.2998928562        1.2230733724       -5.9761762764
 H       -10.1369982898        2.3905341200       -6.3569922976
 H       -12.4358879786        2.3680251923       -4.5292845359
 H       -11.5448836280        3.7964609140       -5.2668014368
 H        -7.2117440299        5.6816818644       -2.0164761560
 H        -6.7807346255        4.3810140330       -0.9434414104
 H        -7.8044883270        6.9693584846        0.0061212513
 H        -7.2770883145        5.5063232172        0.8326716700
 H        -9.9988884830        8.4319004309        3.6387577632
 H       -11.6259203632        8.0984757006        2.8554932694
 H       -11.8217943283       10.2743493277        3.0816454146
 H       -11.2292389504       10.0441310496        1.5006096598
 H        -9.4353151374       15.0001745444        3.8509794080
 H       -10.1907316274       14.9211322117        5.3499165900
 H       -11.0777986710       15.4274508719        3.8769456252
 H        -7.7657994370       12.6270962786        4.0367983017
 H        -8.1214932475       13.9952871286        3.0480839696
 H        -7.6901105617       12.4965491081        2.1393052722
 H       -10.1748946024       14.1673450700        1.3770409984
 H       -11.2951859500       12.9427106546        1.1872165224
 H        -9.6751222827       12.7259255409        0.5812488738
 H       -10.2192851077        4.4365141203        3.0847144897
 H       -11.6003680943        5.0270769220        2.2308592421
 H       -10.7926845930        5.7854794462        3.7540089171
 H        -7.6276824065        6.7394423004        2.7353913047
 H        -7.8355206891        4.9935830192        2.9062968588
 H        -8.7946137123        5.8919402121        4.0192188950
 H        -9.1137577734        5.4840750911       -5.0624114612
 H        -8.5408296696        3.6911647856       -4.8036221986
 H        -7.6091992274        4.7950981440       -4.0860971588
 H       -11.3358179581        5.8600863071       -3.6375137430
 H        -9.8236793056        6.7038692093       -2.9913183436
 H       -10.8199360140        5.7761564785       -1.9371952672
 H        -7.1166508844        1.0796768909       -5.7037205112
 H        -8.2354853531        1.0159778243       -7.1711961178
 H        -7.1965597923       -0.3601367107       -6.7055370537
 H        -9.2372721193       -2.0367307401       -6.3961124524
 H       -10.1580549877       -0.7933853163       -6.8768995516
 H       -10.4880153254       -1.5065940557       -5.3134341444
 H        -6.5052548878       -0.0246073411       -0.8546004972
 H        -6.7481300068        0.3616376021        0.8607480452
 H        -7.9602557514        0.8141965988       -0.3811121579
 H        -6.7478182222       -3.0561647317        0.0166943405
 H        -7.7190313660       -3.0247802185        1.4423497136
 H        -6.3369742175       -1.9606447577        1.4034343836
 H       -14.2922418452       -0.9069194603       -0.1364611109
 H       -14.3920000767        0.6918959294        0.7269482548
 H       -15.4173378094       -0.6314760739        1.1584154019
 H       -13.6926425992        0.9048245201        3.2100235529
 H       -13.2454023124       -0.5865865651        4.0954785743
 H       -14.8949327280       -0.4122166809        3.3809124524
 Na      -10.4082320319        1.1633883453       -1.3869034192
