117

 C       -14.4925615741       -3.1352011337        1.8110151898
 C       -13.3787782942       -2.1408148421        2.2214138098
 O       -12.5854815653       -2.4396790764        3.1009038093
 C       -13.4499477878       -0.7003683855        1.6798561022
 C       -12.0857682684        0.1616416930        1.6483146790
 O       -11.8700933825        0.8855499667        0.6413473744
 C       -10.9897620376        0.0469888989        2.7945245968
 C        -9.5716717295       -0.0738410452        1.9682918498
 C        -9.3189928149       -1.3466999067        1.2504687233
 O       -10.2255725403       -2.1648290873        1.1898738927
 C        -8.0351846128       -1.6615835079        0.3952761117
 C        -8.6495035450       -1.7592676175       -1.2066285748
 O        -9.5873531867       -1.0537558830       -1.4666796854
 C        -8.1756725503       -2.7311779484       -2.2560702512
 C        -8.6787996757       -2.4919531615       -3.6387994094
 C        -8.2502741709       -0.9801530424       -4.2186901016
 O        -7.3470126978       -0.4869483898       -3.5659706888
 C        -8.6922502592       -0.2548235278       -5.4727934473
 C        -9.2650868530        1.2137850556       -4.9352203201
 O        -8.7336733372        1.7550263815       -3.9782171240
 C       -10.3621747386        1.8614160207       -5.7822133115
 C       -11.2651149579        2.8276771913       -4.9824471284
 C       -10.9423912946        3.0008609528       -3.5294762799
 O       -11.6048294108        2.4320666960       -2.6668140800
 C        -9.8350007879        4.2391236679       -3.2071557289
 C        -9.0614554940        4.0171269317       -1.9258646316
 O        -9.1244234836        3.0655502547       -1.1321592305
 C        -7.9741695436        5.1181059212       -1.6394519894
 C        -7.8697568599        5.2313726075       -0.0797124693
 C        -9.1222638560        5.8167527337        0.5532738653
 O       -10.1726281837        5.6278249302       -0.0135059975
 C        -9.2926034655        6.5592652841        2.0033991301
 C        -9.7923938229        8.0670600416        1.7116315045
 O        -9.5380022826        8.6165124726        0.7069021913
 C       -10.3391119211        8.7965894235        2.8781803742
 C       -10.4755047335       10.2973701198        2.3986071041
 C        -9.6730980397       11.1870787143        3.2967916286
 O        -9.1444838757       10.7873983683        4.3506546505
 C        -9.5699082812       12.6876854865        2.8250587286
 C       -10.4471910923       13.5717330218        3.8966380488
 O       -11.3091896732       12.9633672658        4.3569348963
 C       -10.1220301705       14.9283532763        4.3094442693
 C        -8.0626036339       13.0553422530        2.3508273530
 C       -10.4545635509       12.7912523820        1.4679110770
 C       -10.3610547850        5.8157617312        2.7481367817
 C        -8.1599709277        6.3700995509        2.9898895036
 C        -8.7572409091        4.5153097791       -4.3657970803
 C       -10.6890042825        5.4987016121       -2.8101085227
 C        -7.3864907840        0.1724971725       -6.1634790674
 C        -9.6343892038       -1.0302957625       -6.3894994075
 C        -7.0575577091       -0.4456764546        0.3675886404
 C        -7.3143421002       -2.8187698349        1.1064069009
 C       -14.2256488306       -0.1942576910        0.4201323630
 C       -14.1491398816        0.0385513440        2.8740417037
 H       -15.2612547306       -2.7695337806        1.1425568961
 H       -14.8652483853       -3.3959292685        2.8758039021
 H       -13.9676139791       -4.0494630412        1.4667284405
 H       -11.2874149826       -0.7566384978        3.3732496222
 H       -10.8241051230        0.8848538559        3.4878112953
 H        -8.6904168439        0.0673049902        2.5537251519
 H        -9.4787602539        0.8560252344        1.3447413918
 H        -8.2307545546       -3.6584107500       -1.8395702606
 H        -7.1077199062       -2.7067397457       -2.4056479105
 H        -9.7732689190       -2.7740489111       -3.7401824017
 H        -8.2359398586       -3.1640687288       -4.3721772595
 H       -10.8841851461        1.0734085375       -6.2724708910
 H        -9.9373544287        2.4118566876       -6.6635647068
 H       -12.2270028293        2.3230008321       -5.1717629883
 H       -11.1679591843        3.6900989871       -5.5262388767
 H        -7.9370655218        5.9760262448       -2.1773872923
 H        -7.0034032817        4.6588979726       -1.9559767510
 H        -6.9713610711        5.7938608606        0.1982582982
 H        -7.8000455898        4.2570630286        0.4082144113
 H        -9.7772490785        8.9326687762        3.7734097764
 H       -11.2661610745        8.3793618394        3.1471685462
 H       -11.5538884812       10.3204852033        2.7999960047
 H       -10.4695532946       10.5160523264        1.4079259437
 H        -9.5803662424       14.8470151086        5.2030919249
 H       -11.0793780720       15.3913776745        4.6178691417
 H        -9.4658136569       15.6003246938        3.6779892821
 H        -7.5685140379       13.7137044802        3.0745138970
 H        -8.2405344122       13.8554043381        1.6689241601
 H        -7.4980046538       12.1436323989        1.9717397552
 H       -10.4118616214       13.8970480688        1.1616874123
 H       -11.5520234720       12.5020850269        1.5277431432
 H        -9.9743056510       12.2188208254        0.6329386613
 H       -10.3448576101        4.7000219059        2.6052316981
 H       -11.4292701247        6.0647301065        2.3855235821
 H       -10.2462391191        6.1074451188        3.7613985814
 H        -7.2390517223        6.1587753055        2.4601501543
 H        -8.2854553198        5.4317583835        3.4338597264
 H        -8.1827835536        7.1227137018        3.8605247170
 H        -9.3911233283        4.3469356034       -5.2214600114
 H        -7.9073761122        3.8476644794       -4.3613180951
 H        -8.4065335308        5.5328784037       -4.2939406443
 H       -11.1617473063        5.9066214543       -3.7012794325
 H       -10.0689375343        6.2810912626       -2.3217082903
 H       -11.4154305683        5.0985808786       -2.0095086442
 H        -6.7694103008        0.6304958633       -5.3399587818
 H        -7.5535294607        0.9459939436       -6.9620932621
 H        -7.0286763714       -0.7519752949       -6.5259746000
 H        -9.1399722515       -1.9663906183       -6.5178495703
 H        -9.7987070379       -0.7652320144       -7.4602763291
 H       -10.6659756946       -1.2793809283       -6.0731637388
 H        -6.1226556465       -0.8924039206        0.0394792995
 H        -6.6114621953       -0.1043821241        1.3439312568
 H        -7.3888158064        0.4346812619       -0.1602144658
 H        -6.3960691188       -2.9609103148        0.5877459518
 H        -7.9053277647       -3.7643966938        0.9995519656
 H        -7.3038692909       -2.6369548624        2.2033303752
 H       -13.6929109362       -0.6392660107       -0.4731230086
 H       -14.3608770100        0.8314452973        0.4908063280
 H       -15.1791012879       -0.6501724423        0.3561967758
 H       -14.6473129579        0.9809643654        2.5274434982
 H       -13.3884073881        0.1692695550        3.6298573026
 H       -14.9246936906       -0.5580278334        3.2578682066
 Na      -10.4262051977        0.9858040386       -1.1609357797
