117

 C       -14.5017523369       -2.9121568129        1.9147787019
 C       -13.6155128026       -1.8507856992        2.4102313535
 O       -12.8738870376       -2.1167006477        3.3379766146
 C       -13.5879455025       -0.4276046462        1.7690990596
 C       -12.1076860486        0.2843640827        1.6227061606
 O       -11.8344112175        0.9214337931        0.6477521179
 C       -11.0094131171       -0.1366128883        2.6026146630
 C        -9.6415124511       -0.2414173764        1.9592006271
 C        -9.4453689225       -1.5309601100        1.1765029241
 O       -10.2513291828       -2.4038161484        1.3395097564
 C        -8.1280278117       -1.7999101211        0.2467935751
 C        -8.6742477753       -1.7190198916       -1.1616705651
 O        -9.6178315780       -0.9850971883       -1.4708567786
 C        -8.2779760175       -2.7741696171       -2.1683728341
 C        -8.7690059720       -2.4546743078       -3.5480390091
 C        -8.0168800148       -1.1480832989       -3.9203923544
 O        -7.2535721467       -0.5844629822       -3.1809163309
 C        -8.5509156106       -0.4319641456       -5.3804633606
 C        -9.0905322365        1.0755907999       -5.0468737400
 O        -8.5592487138        1.6478627413       -4.1537773687
 C       -10.1018025235        1.7505473490       -5.9127931355
 C       -11.1404845954        2.7095840599       -5.2070690333
 C       -10.7531670027        2.8678863818       -3.6505796317
 O       -11.3021480939        2.0912933618       -2.8889746028
 C       -10.0471903289        4.1883555157       -3.1370819388
 C        -9.2786312220        3.9463833213       -1.6688068103
 O        -9.1920651564        2.8740764931       -1.1275137617
 C        -8.1958508796        4.8659918132       -1.3872535393
 C        -7.9457127332        5.1330907383        0.0507563898
 C        -9.1674349490        5.7521540388        0.7303462935
 O       -10.0773781503        6.0049670658       -0.0604889971
 C        -9.1425083003        6.6051742364        1.9466271666
 C        -9.6505205106        7.9587544983        1.6769014727
 O        -9.4685019339        8.5285651708        0.5766559549
 C       -10.1926444736        8.8181402488        2.8071742074
 C       -10.5560790360       10.3171978719        2.7578987698
 C        -9.5743451714       11.4138817527        3.4096210485
 O        -8.9056821605       11.1918937194        4.3394242477
 C        -9.6717180836       12.8454748151        2.7215776338
 C       -10.3323443032       13.7214430620        3.7365007517
 O       -11.3627126865       13.2532392253        4.3500214967
 C        -9.7234422034       15.0797313157        4.1410109414
 C        -8.1354450956       13.2328263872        2.4379454241
 C       -10.5573286123       13.0588547163        1.4686254093
 C       -10.3727761754        5.9782527493        2.6672867192
 C        -7.7489837697        6.6329093526        2.6070503137
 C        -9.0019488173        4.5975464649       -4.1421255037
 C       -11.2433772940        5.2542512016       -3.1921469227
 C        -7.1786472181       -0.1243473587       -6.1786039202
 C        -9.5061248203       -1.2150119452       -6.2233749249
 C        -7.1294039959       -0.7506864463        0.5846084935
 C        -7.6234261896       -3.2617889017        0.4608685902
 C       -14.1384274864       -0.5087358968        0.2971452961
 C       -14.4798832118        0.4528080471        2.6936486411
 H       -15.1144263282       -2.4296229673        1.1549326971
 H       -14.9624119387       -3.3898888530        2.7310385369
 H       -13.8178025632       -3.6226685062        1.4391320310
 H       -11.2523889937       -1.1578626633        3.0833272524
 H       -11.0241014229        0.5431532570        3.4895786082
 H        -8.8250066848       -0.2695923657        2.7581838579
 H        -9.3254943311        0.5942971496        1.3628444826
 H        -8.7913304500       -3.7105788913       -1.6802223480
 H        -7.2198546364       -3.1218177190       -2.2635180074
 H        -9.8204588217       -2.1867159674       -3.4326484094
 H        -8.7174670983       -3.2891560537       -4.2754269149
 H       -10.4676566539        1.0860114419       -6.7319884460
 H        -9.5014874744        2.4160630749       -6.4664460290
 H       -12.0607167786        2.1772924692       -5.4080368048
 H       -11.0752512905        3.6407352726       -5.8610046035
 H        -8.2488306153        5.8504462329       -2.0241936755
 H        -7.3382812944        4.3705959955       -1.8636223396
 H        -7.1211513356        5.8524463757        0.1180842490
 H        -7.5857140269        4.2288618431        0.6081513689
 H        -9.5689402211        8.6798831586        3.7356660206
 H       -11.1597640893        8.2840200504        3.0613997734
 H       -11.5359077657       10.3303998789        3.1132567178
 H       -10.6852876335       10.5670765212        1.6139502145
 H       -10.0530517830       15.4277239655        5.1570572332
 H        -9.9038397174       15.9081413186        3.4600684069
 H        -8.7075086215       14.9385243614        4.2962946570
 H        -7.4736753700       12.8685572055        3.2406282888
 H        -7.9226976549       14.3352875558        2.4061432500
 H        -7.9891964848       12.6413087452        1.5747214368
 H       -10.5105586555       14.0820234606        1.2100189759
 H       -11.5396298785       12.7563948060        1.7371622169
 H       -10.2787608532       12.4783241720        0.5913814171
 H       -10.2309172552        4.8895755277        2.8476991877
 H       -11.1214439220        6.0957405215        1.9848635315
 H       -10.7237194187        6.5681535794        3.5520254806
 H        -7.1139024130        7.1033964536        1.8156896324
 H        -7.2113576848        5.6718254839        2.9483154604
 H        -7.8723846857        7.3635211687        3.3434512085
 H        -9.4444521825        4.4439530262       -5.1478263125
 H        -8.0643224644        3.9258787047       -4.1340120890
 H        -8.8122881812        5.6537505262       -3.9142275614
 H       -11.1038798147        5.4883582827       -4.2720222184
 H       -10.9428892649        6.2012125000       -2.7384023290
 H       -12.2178489319        4.8864484849       -2.9192753494
 H        -6.5486511169        0.4531044409       -5.5421153890
 H        -7.4244983383        0.5106814956       -7.0064890399
 H        -6.8336109744       -1.1281793066       -6.5581614215
 H        -9.3697998908       -2.3013320660       -6.3961579356
 H        -9.5799021315       -0.8177986543       -7.2274587737
 H       -10.4740487962       -1.0585375623       -5.9411048847
 H        -6.2039146588       -0.8846336948        0.0511513065
 H        -6.7540058335       -0.6759570366        1.5512092317
 H        -7.6687451495        0.1864587181        0.4374269973
 H        -6.6341303557       -3.2122003661        0.0561734398
 H        -8.1361385831       -4.0104718324       -0.0783756902
 H        -7.6926367894       -3.5751820689        1.4761118734
 H       -13.4012321853       -0.9957015025       -0.2624129739
 H       -14.3491816763        0.5537621047       -0.0218638277
 H       -15.0790071666       -1.0656071154        0.1566227234
 H       -14.3387211196        1.5019744800        2.5935845365
 H       -14.1310288449        0.0975274102        3.6820982335
 H       -15.5599076913        0.2434456821        2.5712839518
 Na      -10.4343170632        1.2099216559       -0.8632227293
