117

 C       -14.6359298102       -2.9329126388        2.2946161853
 C       -14.0158841959       -1.6133973357        2.7403443125
 O       -13.9775033091       -1.3234060515        3.9135126744
 C       -13.7450960771       -0.3408269760        1.6560134636
 C       -12.2227024291        0.0799331039        1.6278419960
 O       -11.9044215653        0.9398250036        0.8113656215
 C       -11.3220654186       -0.4282470026        2.5883402367
 C        -9.8212305541       -0.4461007068        2.0235566815
 C        -9.6203382230       -1.9144194209        1.4905498270
 O       -10.5352110448       -2.7390010218        1.5085480012
 C        -8.4872750377       -2.2584166550        0.5395070328
 C        -8.9259729275       -2.0359253253       -1.0707914928
 O        -9.3673521428       -0.9277135703       -1.3386326027
 C        -8.7465490865       -3.1086315700       -2.1654513411
 C        -9.0304823806       -2.4561132600       -3.6587493562
 C        -8.0388588227       -1.3568648491       -4.0274325842
 O        -7.1025967460       -1.0198042835       -3.3282583634
 C        -8.1428672012       -0.5938480815       -5.5165230711
 C        -8.6266256897        0.9734416402       -5.2694881751
 O        -8.0977723657        1.4541736637       -4.2620388339
 C        -9.4724952072        1.7410297653       -6.2139517925
 C       -10.6320793191        2.2432018096       -5.4024263173
 C       -10.4133195700        2.4944209714       -3.8058217860
 O       -10.7906697826        1.6087062820       -3.0492350923
 C       -10.0449104481        3.8669047357       -3.1593078313
 C        -9.2066098213        3.9151923270       -1.8687697312
 O        -9.5723186383        3.2452105428       -0.9289596859
 C        -8.1992128741        5.0329331086       -1.6800173284
 C        -8.0275012567        5.5034979707       -0.1971778881
 C        -9.1935102682        6.2476880531        0.6203961673
 O       -10.3222626757        6.1444617110        0.1742054366
 C        -8.9920976158        6.8178253109        2.0220385194
 C        -9.5467241945        8.2750237764        1.9559431356
 O        -9.4671206064        8.7966017978        0.8414091810
 C       -10.3230747969        9.0820055239        3.0878589635
 C       -10.5810070560       10.5548052815        2.7639526965
 C        -9.3320914327       11.7142254987        3.1517092900
 O        -8.4042704405       11.4044533491        3.8117011630
 C        -9.5045577318       13.1787096329        2.6955153720
 C       -10.1451260866       14.0377456662        3.8355284106
 O       -11.3245518821       13.9218431051        4.1478197134
 C        -9.4064332258       15.3030480094        4.3308599493
 C        -8.0582034271       13.6423647022        2.2452690697
 C       -10.6256166369       13.3090963064        1.4398901891
 C        -9.9074065418        5.8920279894        2.8244638499
 C        -7.5121865750        6.9259473693        2.1882791021
 C        -9.5188719823        4.7611737749       -4.2880947299
 C       -11.4437840615        4.5487170689       -2.7701788846
 C        -6.7263963664       -0.5159436600       -6.1184215393
 C        -9.0963112498       -1.3352994260       -6.4803838897
 C        -7.2487010406       -1.2450419968        0.6493963085
 C        -8.0313014387       -3.6515251587        0.6665884430
 C       -14.3389126029       -0.6126972750        0.3833879321
 C       -14.4723947062        0.8334937622        2.3766596098
 H       -15.6703393667       -2.6197560324        2.4545302449
 H       -14.1707978020       -3.6695326845        2.9904719264
 H       -14.4283926788       -3.2563364115        1.2473386041
 H       -11.7988839622       -1.3922783037        2.8715750526
 H       -11.3390853447        0.0826912366        3.6106242472
 H        -9.0257745261       -0.3548337245        2.8195940150
 H        -9.6241243220        0.2435337371        1.2494196066
 H        -9.4347992555       -4.0061987051       -1.9764768596
 H        -7.6823538642       -3.3909912657       -2.1482231999
 H       -10.1108547255       -2.2231018447       -3.5973874957
 H        -8.9139882861       -3.2510132901       -4.3416631381
 H        -9.6389117881        1.1272527987       -7.1418466347
 H        -8.9109480505        2.5589957452       -6.4952789569
 H       -11.5966899818        1.6534041248       -5.5405654355
 H       -10.9597597746        3.1938491786       -5.8715408048
 H        -8.5836109692        5.8583574843       -2.3591738121
 H        -7.1879792223        4.7230018202       -2.0135786949
 H        -7.1485538526        6.1271305418       -0.2268672387
 H        -7.7545690403        4.5148577433        0.3007416281
 H        -9.9582171851        8.8033459504        4.0276266165
 H       -11.3160391107        8.6855833931        2.9535192899
 H       -11.5096084223       10.7895130859        3.1616663881
 H       -10.8152575733       10.5648667591        1.6089445540
 H       -10.0539576597       16.1507980491        4.0676407281
 H        -8.3605805550       15.5872868373        4.0506663865
 H        -9.4666040690       15.2962302841        5.3797618246
 H        -7.3648048813       13.9494578785        3.0987857099
 H        -8.0199637686       14.2412310415        1.2608834919
 H        -7.5580699995       12.7500224979        1.9059058921
 H       -10.2590716147       14.2358385153        0.9644368472
 H       -11.7150539484       13.3182120388        1.6851069972
 H       -10.5310739583       12.6015349477        0.5659779477
 H        -9.2244658849        5.0121555956        2.8200394958
 H       -10.7482167686        5.7953582935        2.2295962375
 H       -10.2748519518        6.0841733774        3.8526993928
 H        -6.8767760681        7.1857006166        1.3022148629
 H        -7.2338645718        5.9029068648        2.5379524607
 H        -7.2477451581        7.6839507127        2.9016460290
 H       -10.1852538070        5.0414347717       -5.1149285991
 H        -8.7155290207        4.1255722658       -4.8535625766
 H        -9.2175873126        5.7138945432       -3.9398146207
 H       -12.1528451860        4.5988639254       -3.6690584058
 H       -11.3245700792        5.5540747372       -2.3453434666
 H       -11.8179449864        3.6659666822       -2.2114541702
 H        -6.1637160030       -0.0114665482       -5.3146934865
 H        -6.7045982079       -0.0038314652       -7.0922901157
 H        -6.4920340120       -1.6123698721       -6.2057489534
 H        -9.1174300233       -2.4310675373       -6.4726694652
 H        -8.8321876717       -1.1242823133       -7.5296986190
 H       -10.0692551150       -1.1503808912       -6.3472321919
 H        -6.3193287061       -1.5455144135        0.0685104536
 H        -7.0386233292       -1.1315989278        1.7166927823
 H        -7.4507750935       -0.1647606802        0.3726100346
 H        -7.3775980356       -3.9263587544       -0.0905159467
 H        -8.9542812569       -4.2616512986        0.6402403313
 H        -7.4581885161       -3.8405715752        1.5992336983
 H       -13.6502724369       -1.2044452088       -0.1850073117
 H       -14.3972628934        0.2998272851       -0.2371097493
 H       -15.3035301640       -0.9922059658        0.5834066789
 H       -14.8080461216        1.6484448538        1.7267745763
 H       -13.8237798565        1.3198092610        3.1476601324
 H       -15.2818250045        0.3716928379        2.8687506270
 Na      -10.6202414628        1.1973817036       -0.9655555212
