117

 C       -14.5671491573       -2.8595225861        2.3936459873
 C       -14.1860022312       -1.4428105505        2.9287773681
 O       -14.2190680286       -1.1278994682        4.1083529519
 C       -13.9283049489       -0.3449288344        1.7817610500
 C       -12.2940839654        0.0516095942        1.6122636377
 O       -11.9620578129        0.8399060436        0.6851492833
 C       -11.3748072151       -0.5685743059        2.6521196764
 C        -9.9326063127       -0.6108923135        2.1571532046
 C        -9.7547682470       -1.9523902658        1.3269980613
 O       -10.5674219733       -2.7933781129        1.5564465600
 C        -8.4878174565       -2.3472388496        0.4333163372
 C        -8.9345244691       -1.9670635201       -1.1100224855
 O        -9.5803569262       -0.9884071528       -1.4222773256
 C        -8.7469994949       -3.0501076454       -2.1991669041
 C        -9.1643514647       -2.4893704426       -3.6044296307
 C        -8.1343495199       -1.4910654237       -4.1527811980
 O        -7.1253173910       -1.3308248544       -3.4791108343
 C        -8.0938008604       -0.6759582274       -5.4848095500
 C        -8.3040414071        0.9181892729       -5.3109404251
 O        -7.8634035864        1.5126712003       -4.3317309178
 C        -9.2240721504        1.7634999646       -6.1977376368
 C       -10.4772556077        2.1779429619       -5.2608408217
 C       -10.4151463018        2.3607749325       -3.7968288722
 O       -10.7915444430        1.3721461085       -3.1287997657
 C       -10.2728880314        3.8351036876       -3.2057192450
 C        -9.4915988929        3.9354647665       -1.8179024167
 O        -9.3393177746        3.0626180076       -0.9835252955
 C        -8.3671355006        5.1678704093       -1.7011045253
 C        -8.0149481709        5.6344996335       -0.2781855580
 C        -9.2182982113        6.2786409763        0.4102307801
 O       -10.3754621585        6.1954097728        0.0860293809
 C        -8.8403905476        6.8891424519        1.9858850756
 C        -9.5341948361        8.3665104505        1.7780252651
 O        -9.4700508172        8.9249768379        0.7665344883
 C       -10.3984399632        9.1012055872        3.0004621845
 C       -10.3855709002       10.7237982997        2.8664749422
 C        -9.2760886407       11.6370145265        3.1376635251
 O        -8.2967542952       11.3913211067        3.8432814712
 C        -9.4200463483       13.1991372399        2.5576882964
 C       -10.1639197325       14.1678095443        3.7703325670
 O       -11.2596018418       13.8630315146        4.0347243618
 C        -9.3478045068       15.2499076735        4.3118413317
 C        -8.1784270840       13.8141668564        2.1173381493
 C       -10.5248780403       13.3364064290        1.5212018816
 C        -9.7548705119        6.0968559683        3.0167405787
 C        -7.3842683714        7.0842657354        2.4387904367
 C        -9.6247497651        4.9013549183       -4.2117309116
 C       -11.6776925945        4.5474004804       -2.8803356132
 C        -6.6217030296       -0.5697561595       -5.9997595233
 C        -8.9205699952       -1.4437581214       -6.5925234652
 C        -7.2552475962       -1.4133833696        1.0056128889
 C        -8.0441627961       -3.8061325605        0.7117441694
 C       -14.3799983976       -0.6632060421        0.2700420306
 C       -14.5589202685        0.9735507917        2.4034215445
 H       -15.6323306784       -2.8587081965        2.4094716872
 H       -13.9746941654       -3.4288532706        3.1581413232
 H       -14.1479274860       -3.1216561118        1.4469929671
 H       -11.8524819791       -1.4256374602        2.9935239077
 H       -11.2000363773        0.0566132677        3.6422371881
 H        -9.1241447155       -0.4277566303        2.9256614010
 H        -9.9111102563        0.1801365947        1.4022990108
 H        -9.3440311030       -3.9489176032       -1.9419617034
 H        -7.6025506955       -3.2796279934       -2.3584261876
 H       -10.2742430555       -2.1809118415       -3.4052143861
 H        -9.2112328874       -3.4115912532       -4.1718694623
 H        -9.4961743554        1.2639448678       -7.1291324382
 H        -8.6015713515        2.6539797575       -6.3928063396
 H       -11.2508160073        1.3129601808       -5.3529008282
 H       -11.0840325006        2.9267992761       -5.7206312364
 H        -8.5645226408        6.0579965642       -2.2502041664
 H        -7.4155478514        4.6355680574       -2.1398615236
 H        -7.3281588742        6.4488691252       -0.3848366472
 H        -7.5090119787        4.7859085906        0.3166749430
 H        -9.8910602631        8.8525115013        4.0003128765
 H       -11.4538648085        8.7931697091        3.0342697669
 H       -11.2119667636       10.9684989143        3.6263422346
 H       -10.8159095031       11.0932624517        1.9595486243
 H        -9.4651026284       16.2237946325        3.9932744186
 H        -8.3003284774       14.9726905151        4.1530466222
 H        -9.4488152858       15.2436079383        5.4174758462
 H        -7.5231228108       13.7974245278        2.9784608848
 H        -8.3491525294       14.7357205377        1.5814413518
 H        -7.5870471405       13.2892011582        1.3372568439
 H       -10.3994714083       14.2907838298        1.0079978764
 H       -11.5164302415       13.2121687481        1.9670760893
 H       -10.4675530884       12.6279894388        0.6814970063
 H        -9.2893363699        5.1289825578        3.2129092774
 H       -10.8550150468        6.2204812402        2.6835154948
 H        -9.7045438603        6.5149302446        3.9561921347
 H        -6.8135990168        7.5847118540        1.6240705232
 H        -6.9301263656        6.1617433621        2.6598051013
 H        -7.2793028940        7.8304908121        3.3460977493
 H       -10.1814499934        5.1267651437       -5.1633725357
 H        -8.7444794083        4.3878819987       -4.6137117365
 H        -9.4961227145        5.9313308003       -3.7795094189
 H       -12.2297805851        4.8025580465       -3.7932109404
 H       -11.4693583534        5.4891368515       -2.3296365006
 H       -12.2762608544        3.6921224799       -2.4376358938
 H        -5.9863095028       -0.2906318497       -5.1145486949
 H        -6.6438641020        0.1652961912       -6.8347207344
 H        -6.4450060241       -1.5492467340       -6.3632194966
 H        -8.5817191921       -2.4215719228       -6.6294308798
 H        -8.8224574647       -1.1504535329       -7.6199890349
 H       -10.0015910787       -1.7031898378       -6.2734507559
 H        -6.3166697296       -1.7644423978        0.5679686638
 H        -7.3058396580       -1.5794746280        2.1249084175
 H        -7.1663026827       -0.3537357243        0.8411842226
 H        -7.0904371321       -4.0483126132        0.3300044970
 H        -8.8080305018       -4.4526218977        0.3333638523
 H        -7.8992525662       -3.9499544342        1.7628851230
 H       -13.4859524033       -1.0599157441       -0.2918743172
 H       -14.4062649484        0.2720547616       -0.2195869691
 H       -15.3134592427       -1.1441635458        0.2237333972
 H       -14.8261509236        1.7360224811        1.6152098289
 H       -13.8812291511        1.5019189933        3.0841846327
 H       -15.4121632240        0.6929331082        2.9445873621
 Na      -10.5456526972        1.2867046187       -0.9498307809
