117

 C       -13.5553776386       -2.0615408214       -6.1065412078
 C       -12.2857700771       -2.8467073987       -5.6192350795
 O       -12.3341272935       -4.0599617806       -5.6857039448
 C       -11.1467237373       -1.9618732939       -4.9600409986
 C       -11.5601651388       -1.5516233219       -3.5588988632
 O       -12.1679945694       -0.5094835801       -3.3953973210
 C       -11.2058826210       -2.4641733356       -2.4302411090
 C       -11.9384911832       -2.1011351952       -1.0986117795
 C       -11.2615964392       -2.5585846955        0.2237981316
 O       -11.5124060618       -3.5641237748        0.8445937507
 C       -10.2692125318       -1.4110942044        0.9153345104
 C       -11.3806827237       -0.4967007648        1.5980045625
 O       -12.4783659908       -0.3247737860        1.1093117863
 C       -11.1071485632        0.2310745832        2.9624334300
 C       -11.6889398427        1.6471753508        3.1050256205
 C       -10.5833345264        2.6990585264        3.4406352916
 O        -9.3816026006        2.6266216070        3.2454025344
 C       -11.1045453439        4.1007329345        4.2319875136
 C       -11.5866664649        5.1307986359        3.1402973519
 O       -10.7561057663        5.8634387067        2.5235447462
 C       -13.0824951144        5.2300447798        2.8292357200
 C       -13.3843156464        4.7054261790        1.3064304923
 C       -12.1542377204        4.8076722416        0.3355616316
 O       -11.3171550984        3.9422899108        0.1916151944
 C       -12.0943712749        6.1648082810       -0.4779034013
 C       -10.6785731197        6.5477313719       -0.9972850158
 O        -9.7781331156        6.5200099503       -0.2089217935
 C       -10.4106802201        7.0701627521       -2.4084463225
 C        -8.9692447253        7.6177806856       -2.4321863204
 C        -8.7702929947        8.9768389824       -1.6720371237
 O        -9.7242141399        9.6115431432       -1.2357145215
 C        -7.2308503869        9.5710820768       -1.7380007815
 C        -6.6379728764        8.8891246761       -0.5088525886
 O        -6.1253050030        7.8295574718       -0.6546776146
 C        -6.7049513549        9.5433739600        0.9741606282
 C        -5.9429002425        8.6589492230        1.8959178031
 C        -6.3429716823        7.1084027781        1.7432525261
 O        -7.5027418127        6.8605011351        2.0019197539
 C        -5.2663270782        5.9435557616        1.7778227473
 C        -5.7515378040        4.9146607543        0.7373524921
 O        -6.8143522541        4.3587526543        0.8644481682
 C        -4.8291453504        4.4715342598       -0.4188628024
 C        -3.8103378544        6.3550210298        1.5481516319
 C        -5.3727047196        5.3043597911        3.2107731803
 C        -6.3624528585        9.3070169067       -2.9439462846
 C        -7.4132652089       11.1490947847       -1.3946105475
 C       -13.0865665218        6.1318146626       -1.7166836906
 C       -12.3833893097        7.3835726302        0.3811593320
 C       -12.1361498719        3.9820947500        5.3570436745
 C        -9.8223359448        4.6853946027        4.9164978833
 C        -9.3001368726       -1.9815612991        1.9951313050
 C        -9.5165785327       -0.6062965715       -0.2268067384
 C        -9.8269178100       -2.8544221363       -5.1836798109
 C       -10.9305956737       -0.7489564569       -5.8779965135
 H       -14.4241802224       -2.6769195458       -5.9896996714
 H       -13.3969794115       -1.6981429549       -7.0562771513
 H       -13.5713603960       -1.1301581781       -5.4819602924
 H       -10.1115538858       -2.5280801355       -2.3513345994
 H       -11.7074067902       -3.4606549336       -2.8387206961
 H       -12.9922378780       -2.1809742799       -1.1222215688
 H       -11.9847951213       -1.0147709237       -1.0882355367
 H       -10.0527670567        0.3709028691        3.1528638800
 H       -11.6323510547       -0.2647186282        3.7298121942
 H       -12.3067149005        1.6658997530        3.9710980183
 H       -12.2426448641        2.0358036998        2.2068495691
 H       -13.4002674171        6.2865934340        2.8373773510
 H       -13.6660068014        4.5726145734        3.4495603967
 H       -14.2210790524        5.2591152224        0.8859880149
 H       -13.7771616384        3.6326653290        1.4553933220
 H       -11.1199522913        7.8773137157       -2.5981069211
 H       -10.5812219303        6.3485115296       -3.1996764173
 H        -8.7259787875        7.7701753104       -3.4764333306
 H        -8.3224683874        6.7479038162       -2.2181155066
 H        -7.7698702854        9.8306037857        1.2162477572
 H        -6.2051294101       10.5222311547        0.8388512198
 H        -6.1415259593        8.8120202435        2.9481670200
 H        -4.8486417426        8.7517681136        1.6959212876
 H        -4.5871914554        3.3877414883       -0.4255297931
 H        -3.8884367327        5.0088370726       -0.3998440216
 H        -5.2249081185        4.6429017710       -1.4119214780
 H        -3.4375280108        7.1229465291        2.2940455295
 H        -3.7136986016        6.7671697702        0.6317168870
 H        -3.1564522985        5.4937496790        1.5916374974
 H        -6.4271758281        5.1937916464        3.5462947848
 H        -4.7174821554        5.7579345679        3.8617214775
 H        -5.0673230064        4.2110550909        3.1568092959
 H        -6.5913395224        9.8863908319       -3.7785884500
 H        -6.2462374647        8.2728689280       -3.1969195432
 H        -5.3732185641        9.8004260878       -2.8189360310
 H        -6.4052090524       11.6043785546       -1.1703092895
 H        -8.1212204705       11.2848584698       -0.4960309013
 H        -7.9371938639       11.6407185683       -2.2429224841
 H       -14.0779110190        5.8363944770       -1.4425006602
 H       -12.7065968716        5.4359604692       -2.3806019877
 H       -13.1432807561        7.0944447995       -2.2637945477
 H       -11.6104967739        7.4920142320        1.1950181245
 H       -13.3662317090        7.3384913228        0.8814882751
 H       -12.4102185707        8.3223341803       -0.0802470923
 H       -13.1200502420        3.8090771937        5.0214717614
 H       -12.1444228376        4.9471649643        5.8833675308
 H       -11.7707933685        3.2032781602        6.0654808249
 H        -9.5099040814        4.1910194761        5.8550786739
 H        -9.8413259692        5.7605042888        5.2127847275
 H        -8.9025296252        4.6247921529        4.2950075914
 H        -8.4750361901       -2.6193958519        1.6086414966
 H        -9.8990262106       -2.6370716188        2.6300739325
 H        -8.7618760328       -1.1950655211        2.5683966078
 H       -10.1093146936       -0.3540396542       -1.0554579998
 H        -8.6071461443       -1.1468661409       -0.4962887765
 H        -9.0310279819        0.3384911981        0.0461740978
 H        -9.9122073725       -3.8910673458       -4.7787366212
 H        -9.0853165778       -2.2696049654       -4.6827124003
 H        -9.6395505712       -2.7691195490       -6.2102307400
 H        -9.8978708924       -0.5790218140       -6.2612223892
 H       -11.0525979366        0.1623595675       -5.3333959331
 H       -11.5423715014       -0.7153615671       -6.7849208165
 Na       -8.9836122335        4.8311258880        1.5732280869
