117

 C       -14.2465687218       -2.6199171433        3.1694383219
 C       -14.5050678522       -1.0446470783        3.1579933650
 O       -14.8482400111       -0.4277728001        4.1316803457
 C       -14.1785859441       -0.1726951457        1.8712468132
 C       -12.6622755431       -0.2003754795        1.4873195613
 O       -12.3911873123        0.3479641660        0.4342693981
 C       -11.6516373879       -0.7659230404        2.6195140172
 C       -10.2410012483       -1.0874046471        2.1128221444
 C       -10.2702284315       -2.3907790701        1.2494814618
 O       -11.2179138781       -3.1249461451        1.4149672146
 C        -8.9371199433       -2.6286316206        0.3827046433
 C        -9.2907415701       -2.0996762622       -1.0278659962
 O        -9.4443483910       -0.8958506484       -0.9772495049
 C        -9.1958662361       -2.8933835352       -2.3262802195
 C        -9.0358111422       -1.8611231210       -3.5350322593
 C        -7.5965502510       -1.6979341187       -4.0554015109
 O        -6.6080898948       -2.0583389529       -3.4849684264
 C        -7.6288861738       -0.8078691109       -5.3725433998
 C        -7.6008892658        0.7388118799       -4.9619485558
 O        -7.1655546380        1.1341438283       -3.9220296212
 C        -8.5827009845        1.7284673104       -5.7828348925
 C        -9.9918292104        1.6961745726       -5.1220160006
 C       -10.1631425404        2.2688890054       -3.7185085020
 O       -10.4968851075        1.5326941342       -2.8170357050
 C       -10.3822779459        3.7463911803       -3.3201451956
 C        -9.3831737728        3.9993826385       -2.1181147146
 O        -9.2099167180        3.2099873361       -1.2629849988
 C        -8.9354291588        5.5357316119       -1.8827734667
 C        -8.4857151981        5.6406236644       -0.3379037059
 C        -9.4789970961        6.5134492527        0.5046583798
 O       -10.6664811880        6.3660282296        0.4122972978
 C        -8.9088605729        7.2945870029        1.6900103040
 C        -9.3492760817        8.9476775600        1.7768124364
 O        -9.4797488139        9.5148545600        0.7424869056
 C        -9.7581148428        9.5220809146        3.1073066352
 C       -10.2185899253       10.8170832518        2.8748791409
 C        -9.1947556297       11.8509976035        2.7580098788
 O        -8.0672343651       11.7146072708        3.3026258128
 C        -9.4018572251       13.3125376961        2.2582133814
 C        -9.9618986144       13.9439608432        3.6264026103
 O       -11.0921140276       13.7116503770        3.8991089795
 C        -9.1122840620       14.7901395372        4.4992066259
 C        -8.0189521032       13.9229152241        1.8845493208
 C       -10.3422109379       13.5616164798        1.0946493318
 C        -9.3546513797        6.4323785464        2.9441401307
 C        -7.2856262602        7.3463802603        1.7793136834
 C       -10.2336135266        4.7435924736       -4.4192462920
 C       -11.7341532757        4.0424865453       -2.6291810982
 C        -6.3052651140       -1.0032135074       -6.1760015653
 C        -8.7873451397       -1.3962565363       -6.2619446637
 C        -7.7181736156       -1.8531851644        0.7628542439
 C        -8.4633921524       -4.0849565068        0.4985958586
 C       -15.0772537158       -0.6889010323        0.6755335092
 C       -14.5329738868        1.3504751258        2.2169111268
 H       -14.9927145598       -3.1092042937        2.5063530967
 H       -14.3546870727       -2.7811968060        4.2586586082
 H       -13.1926741816       -2.7828391748        2.8617033238
 H       -12.0654295329       -1.5592657460        3.2169712811
 H       -11.5808528272        0.1756184508        3.3195769871
 H        -9.5577470527       -1.4530979691        2.8992844718
 H        -9.8164939978       -0.2730316163        1.5258776710
 H       -10.1430244492       -3.4592987056       -2.3411600863
 H        -8.2396498580       -3.5510144858       -2.4339066164
 H        -9.3476821654       -0.9173897784       -3.0336773728
 H        -9.8167811191       -2.1628603390       -4.2396888482
 H        -8.7675190659        1.2965894349       -6.7173086759
 H        -8.0512003452        2.6914720532       -5.8089166183
 H       -10.3272081617        0.6427581352       -4.8771348821
 H       -10.7702207878        2.0290747143       -5.8041530514
 H        -9.7609431162        6.2008822333       -2.0787879758
 H        -8.0031311366        5.7473204024       -2.5600696506
 H        -7.5262866279        6.1208635816       -0.4158014885
 H        -8.4880668266        4.6223960935        0.1719453286
 H        -8.9830472696        9.5603928110        3.8487109795
 H       -10.4614699168        8.8466082049        3.5229670949
 H       -10.9544670780       11.2074077163        3.6713008282
 H       -10.7114748957       10.8415334748        1.9902661339
 H        -8.3749165835       15.3480309571        3.9940550544
 H        -8.5457996125       14.0818436364        5.1077764878
 H        -9.6356613433       15.4459993048        5.2681214019
 H        -7.8081086657       13.7414643227        0.7978022255
 H        -7.1564043509       13.5102411466        2.4018039001
 H        -7.7083967682       15.0227419985        2.0952256218
 H       -10.1704825979       14.4543809911        0.4846871035
 H       -11.1910236181       14.0475382391        1.6036022424
 H       -10.7067689252       12.7236744988        0.4434291655
 H        -9.1045027499        5.4064175217        2.7193106474
 H       -10.4125637087        6.7100544931        3.1353067714
 H        -8.7815190275        6.8181773604        3.7690193796
 H        -6.9219028759        7.6334391462        0.7946166611
 H        -6.8049808001        6.4518510980        2.0954626099
 H        -6.9518669461        8.0201923785        2.6466059419
 H       -10.7785435331        4.4840138880       -5.3812179926
 H        -9.2089369415        5.0722070406       -4.5089610496
 H       -10.7275218352        5.6987400175       -3.9954056159
 H       -12.5003303865        3.7150509016       -3.3165011606
 H       -11.6428505170        5.1589498186       -2.5411954624
 H       -11.8651056383        3.4812255059       -1.6598598477
 H        -5.4691369393       -0.4461084695       -5.6916248793
 H        -6.7001499125       -0.6888710017       -7.1622024338
 H        -6.0632495008       -2.0500493898       -6.2085728410
 H        -8.8812462810       -2.4257389478       -6.1920394591
 H        -8.5200878188       -1.2127142585       -7.2466358989
 H        -9.8224173982       -0.9210654054       -6.0437435520
 H        -7.0081096803       -1.8655011853       -0.0460800109
 H        -7.3657945655       -2.1987297816        1.7689571965
 H        -7.8951512974       -0.8114443638        0.6760380315
 H        -7.7560324442       -4.4209200837       -0.3211818833
 H        -9.2807089044       -4.7718572546        0.6117623016
 H        -7.8289737305       -4.1404825865        1.3620235445
 H       -14.7443173669       -1.7685914085        0.6456311560
 H       -14.7509435981       -0.2378191865       -0.2276684511
 H       -16.1256645501       -0.5776649068        0.9360954668
 H       -13.7381413766        2.0924597998        2.0345441992
 H       -14.8189486793        1.3679159146        3.2471373807
 H       -15.4144374767        1.7321248502        1.6478939014
 Na      -10.3188873137        1.2709218798       -0.6385579293
