117

 C       -14.4498315010       -2.5127243030        3.3686088313
 C       -14.4970579329       -1.0454593061        3.2808260106
 O       -14.9985230649       -0.3760198485        4.1711030074
 C       -14.2222126718       -0.2605183443        1.8879758185
 C       -12.7722644850       -0.1985526680        1.4315323860
 O       -12.3710462264        0.2571393902        0.3617059820
 C       -11.6675257563       -0.6191059040        2.5206909116
 C       -10.3008389131       -1.0188792266        2.0788032565
 C       -10.2588104440       -2.4495517769        1.3035875573
 O       -11.2451935785       -3.1799894425        1.2767912360
 C        -9.0499606591       -2.7586832470        0.4330282915
 C        -9.2999094848       -2.0917901197       -1.0227249503
 O        -9.4911605478       -0.8645415615       -1.1436685241
 C        -9.2018294053       -2.7823836381       -2.3954019609
 C        -8.9960458703       -1.7233729276       -3.4728923172
 C        -7.5774732766       -1.6386147556       -4.0005498440
 O        -6.6886103460       -2.2958428855       -3.4896169550
 C        -7.4858101749       -0.8361595700       -5.4050709421
 C        -7.6018618635        0.7064710877       -4.8665583149
 O        -7.0648853356        1.0126165173       -3.8277708392
 C        -8.3642766455        1.7254807870       -5.6740985582
 C        -9.7471985959        1.6550801257       -5.1127433706
 C       -10.2304022612        2.1764857262       -3.6645299278
 O       -10.4103490154        1.3343725823       -2.8008443586
 C       -10.3935375682        3.8246581048       -3.2409367581
 C        -9.4428077072        4.1419945619       -1.9536800183
 O        -9.0880931905        3.2533936358       -1.1708991462
 C        -9.0277238904        5.5191362850       -1.8329921994
 C        -8.5396937126        5.8433114950       -0.4227835044
 C        -9.5777674425        6.5423975143        0.5275471306
 O       -10.8014410472        6.4987842061        0.2973581567
 C        -8.9452975418        7.2532913448        1.7036414292
 C        -9.5142555831        8.8035250209        1.6995230537
 O        -9.4155120561        9.5682924015        0.7353268687
 C        -9.8388187051        9.4101728224        2.9998995128
 C       -10.2448696274       10.9604282633        2.9027152572
 C        -8.9973937302       11.9401813788        2.6805708924
 O        -7.9451930789       11.5913637368        3.2205128288
 C        -9.2865845791       13.5036108435        2.1631888355
 C        -9.9121894889       14.0057151268        3.5713073756
 O       -11.1238178068       13.7459976343        3.7911152564
 C        -9.0222762811       14.6862406590        4.5743512755
 C        -7.9661238316       14.2345602863        1.7360621125
 C       -10.3625199578       13.6903860787        1.0418787053
 C        -9.0063376736        6.4269156619        3.0820746983
 C        -7.3176758496        7.2656664509        1.5791869326
 C       -10.3096742297        4.6278870437       -4.6057821454
 C       -11.8766182610        3.9452872338       -2.5663713582
 C        -6.1750853843       -1.0491447002       -6.2075793973
 C        -8.7004652705       -1.2768374278       -6.2031926551
 C        -7.7642240545       -1.9604352468        0.9308598933
 C        -8.7765543875       -4.3428930684        0.5513523892
 C       -15.1249825072       -0.6625158927        0.7699828973
 C       -14.3868459834        1.3037094889        2.1751690913
 H       -15.4814043781       -2.8384490584        3.0675778526
 H       -14.3870138935       -2.5307678526        4.4134082631
 H       -13.5976745830       -2.9421749739        2.8275593541
 H       -12.0967500162       -1.6069923985        2.9180853952
 H       -11.5807834079        0.0175598154        3.3052789496
 H        -9.6971620186       -1.2143146278        2.9459148423
 H        -9.8274678891       -0.2550880549        1.3705150493
 H       -10.1678364272       -3.3639673977       -2.6149575159
 H        -8.2873601633       -3.3877618085       -2.4499408970
 H        -9.3776207871       -0.8499650578       -2.9481847099
 H        -9.8240544598       -2.0283680703       -4.2498671180
 H        -8.5017014191        1.3683475607       -6.6558495609
 H        -7.7319161908        2.6609909918       -5.5348330092
 H       -10.0831691121        0.6463385208       -5.0083656572
 H       -10.4589804091        2.1014550874       -5.8508523780
 H        -9.9577561669        6.0795767582       -2.1767724059
 H        -8.2378254184        5.5208361795       -2.6122907242
 H        -7.5153547372        6.3294673686       -0.5725756678
 H        -8.5021613314        4.8819627442        0.0620223919
 H        -8.8713763366        9.2626245170        3.5453206622
 H       -10.5393921891        8.7989051439        3.6325065112
 H       -10.5601243754       11.3952293132        3.8728001340
 H       -11.1151806554       11.0868636881        2.2275491356
 H        -8.3369556712       15.5238246396        4.2797027695
 H        -8.4439944816       13.9663183220        5.0936319828
 H        -9.6587668203       15.0675417846        5.3623266229
 H        -7.9638985126       14.5518490035        0.6933097274
 H        -7.0318505431       13.6580660585        1.7997632026
 H        -7.5992712293       15.0967231624        2.3163841389
 H       -10.1980610147       14.4210396388        0.2559239781
 H       -11.2590980174       14.1710754541        1.4412766455
 H       -10.6360542562       12.7408325496        0.5990129392
 H        -8.9513089912        5.4026693830        2.7051220703
 H        -9.8801899584        6.6406007551        3.6683753579
 H        -8.0551205602        6.7623525769        3.7192715543
 H        -6.9511469354        7.6354273112        0.6388230030
 H        -7.0140007613        6.1547202850        1.5572227350
 H        -6.7970599594        7.5262907578        2.4543074090
 H       -11.2542692219        4.3046214617       -5.1059234111
 H        -9.3945922764        4.2388189927       -5.1135504981
 H       -10.1599249496        5.7503644261       -4.6531632105
 H       -12.6710370834        3.6709961219       -3.3394063914
 H       -11.9367845246        4.9540486250       -2.0813839454
 H       -11.8333337259        3.1022192104       -1.8498715844
 H        -5.4434927306       -0.5494937178       -5.5885417408
 H        -6.4386066660       -0.6055164157       -7.1630365987
 H        -5.9000330295       -2.1321367913       -6.3265733109
 H        -8.9304207379       -2.3714396384       -5.9467673464
 H        -8.4117635050       -1.3133915544       -7.2638666737
 H        -9.5861413722       -0.7121896570       -6.1429092857
 H        -6.8633583224       -2.1475736830        0.3382516873
 H        -7.6475650342       -2.1411933940        2.0057155773
 H        -7.9524495529       -0.9006282422        0.6578648474
 H        -8.1058191536       -4.8503552429       -0.1816541421
 H        -9.6658930352       -4.8740662416        0.7234754572
 H        -8.2592006207       -4.3940571945        1.4707063271
 H       -14.8149654302       -1.6643462322        0.6516218268
 H       -14.8684347709       -0.0595791589       -0.1068887393
 H       -16.2212824670       -0.6338186967        1.1031865234
 H       -13.5126369042        1.8473688154        1.9404291080
 H       -14.7589973071        1.5748215988        3.1511303781
 H       -15.1026439137        1.7125846763        1.3714431628
 Na      -10.3419035433        1.3952724748       -0.5029982516
