117

 C       -14.7790035356       -2.3950235774        3.4043664415
 C       -14.7183023031       -0.7791691200        3.2777594875
 O       -15.0769804320       -0.1435369536        4.2443139597
 C       -14.3219371379       -0.0989322727        2.0047267923
 C       -12.7291643403       -0.2560953270        1.5487497543
 O       -12.4356078523       -0.0140058531        0.3878311413
 C       -11.6759411244       -0.6015592926        2.5890923115
 C       -10.2699180982       -0.9394590234        2.0213053660
 C       -10.4349963097       -2.3835813259        1.2532408614
 O       -11.4698097800       -2.9971381743        1.2515749460
 C        -9.1231457634       -2.8458630292        0.4762048130
 C        -9.2771970112       -1.9270681542       -0.8243039170
 O        -9.6478179404       -0.7962665679       -0.7238506424
 C        -9.0886075471       -2.7342783204       -2.1137286157
 C        -9.0041451918       -1.8226918802       -3.4810879304
 C        -7.6625627000       -1.9249538558       -4.1785869051
 O        -6.7598984932       -2.5977089625       -3.7843299433
 C        -7.3212063454       -0.8933438093       -5.3558864391
 C        -7.4839467310        0.5344499106       -4.6142601068
 O        -6.7420915648        0.6864205913       -3.6830429164
 C        -8.2728460457        1.7400610589       -5.2012087930
 C        -9.8312897745        1.5949857707       -5.1532708230
 C       -10.2520976410        1.9463517989       -3.6148604473
 O       -10.2313238218        1.0602964997       -2.8041201866
 C       -10.5007739430        3.5353241623       -3.2327783979
 C        -9.6190031931        4.0131037193       -1.9916286753
 O        -9.2527171198        3.3079374127       -1.0978313291
 C        -9.3835589887        5.6773600529       -2.0063036150
 C        -8.5724796573        6.1531863548       -0.8395668993
 C        -9.4589841772        6.7645280316        0.4045027540
 O       -10.6527221903        6.7074329219        0.4170227566
 C        -8.6957543910        7.3205744474        1.7510861263
 C        -9.4031093230        8.9022162252        1.7298368573
 O        -9.3752764725        9.2786837367        0.6227297444
 C        -9.8649331461        9.6623315929        2.8741990592
 C       -10.0099774793       11.0793490928        2.7517161354
 C        -8.9042612955       11.9788383105        2.5446455530
 O        -7.6985263595       11.7147994698        2.5827007395
 C        -9.1925615627       13.5095359500        2.1870456791
 C        -9.8903604434       14.1132871671        3.5754568306
 O       -11.0711289724       14.0933117868        3.6854552476
 C        -8.9387619092       14.4795851124        4.6867467235
 C        -7.9119169317       14.3188427142        1.7840025566
 C       -10.2449013212       13.4268415376        1.0618430915
 C        -9.1010466024        6.6166999799        3.1082554868
 C        -7.2025021405        7.6363710654        1.4252551933
 C       -10.3838987284        4.6900898565       -4.4298701738
 C       -11.9273618384        3.5010459275       -2.7067538861
 C        -5.8485962926       -1.1154347917       -5.7358106676
 C        -8.2646033663       -1.0014512924       -6.6774461307
 C        -7.7868242315       -2.5045700688        1.2158826884
 C        -9.1863395921       -4.3151138092        0.1254984642
 C       -15.2437396677       -0.7378756179        0.8788938523
 C       -14.4816002520        1.3895669313        2.1105896856
 H       -15.7346317972       -2.5376379421        3.8340684815
 H       -14.0299479470       -2.7947215016        4.1165472456
 H       -14.7239628816       -2.6672510956        2.3957515287
 H       -12.0894271469       -1.4208739705        3.0506303408
 H       -11.6580170230        0.2936718570        3.3697559862
 H        -9.5986220428       -1.2136242580        2.8669097400
 H        -9.8298705116       -0.2223363315        1.4086612103
 H        -9.8962045755       -3.3345619398       -2.2931319271
 H        -8.1807281385       -3.2975702509       -1.9474868004
 H        -9.3085030651       -0.8336170659       -3.1462244571
 H        -9.8097686499       -2.1452412904       -4.0287078370
 H        -8.0282390219        1.6159120890       -6.3203653140
 H        -7.8356588619        2.6259520563       -4.7779560009
 H       -10.2270360090        0.5833630756       -5.4422820564
 H       -10.3366674156        2.3423590407       -5.7413912742
 H       -10.3735535816        5.9892452446       -1.9103567201
 H        -8.8761209718        5.9577050274       -2.9146351142
 H        -8.0052745339        6.9531835504       -1.1705658293
 H        -7.8466801843        5.3454852006       -0.5745215172
 H        -9.2563944560        9.2528406593        3.7142253128
 H       -10.8878576285        9.4297583130        3.2164648014
 H       -10.3747142467       11.4762206496        3.7487317959
 H       -10.8381496410       11.3061099274        2.1148222907
 H        -8.8321710274       15.5074980225        4.5613725809
 H        -7.9071988349       14.0885537334        4.6328671371
 H        -9.3044244845       14.3283324539        5.7322099197
 H        -7.9913023934       15.1349268569        1.1130628138
 H        -7.1603377431       13.7488121928        1.3284796304
 H        -7.4219281638       14.8213431908        2.6366937979
 H       -10.2968948065       14.2942258612        0.4553803500
 H       -11.2880810746       13.2494227050        1.3005391431
 H        -9.9167340849       12.6392292129        0.3961042847
 H        -8.7103013058        5.5966353038        3.0154693473
 H       -10.2313021177        6.4640868500        3.1840195567
 H        -8.7994899551        7.2410803310        3.8646537208
 H        -7.1811266771        8.1968107436        0.4901780441
 H        -6.5596413903        6.8468763923        1.2520685809
 H        -6.7507072261        8.1823001967        2.3220447763
 H       -11.1810462682        4.5166191670       -5.1182825053
 H        -9.4234575430        4.5472927745       -4.8049926289
 H       -10.2539063480        5.7227680457       -4.2437926624
 H       -12.4851343357        3.3415507735       -3.5608031898
 H       -12.2106408207        4.3304783191       -2.1014423071
 H       -11.8941468977        2.5886031421       -2.1009570082
 H        -5.3206396840       -1.3407439411       -4.8106046153
 H        -5.4850455040       -0.2778625447       -6.3145105974
 H        -5.9359341590       -1.9926905506       -6.2757577696
 H        -7.9732256727       -1.8144535775       -7.2766541035
 H        -8.2321990345       -0.0654723427       -7.2810644311
 H        -9.4179056767       -1.0608212208       -6.4006148635
 H        -7.0075808069       -3.2780545389        0.9698056627
 H        -7.9675043235       -2.7475161100        2.2820755613
 H        -7.4008074776       -1.4782542231        1.0492039001
 H        -8.3645616322       -4.6019903425       -0.5199667198
 H       -10.1063580840       -4.3360277884       -0.4796804108
 H        -9.4345229463       -5.0319327862        0.9303312647
 H       -15.0875980843       -1.8612944600        0.7922444616
 H       -14.9513279637       -0.0868934991        0.0815096722
 H       -16.2586984340       -0.5923739000        1.1199654316
 H       -13.5262460349        1.8104792705        2.5096980663
 H       -15.2846696401        1.7167695632        2.7702921427
 H       -14.5676651233        1.8581654332        1.1669936906
 Na      -10.4440704142        1.2705661590       -0.4102174307
