117

 C       -14.8685647285       -2.2955320597        3.4220509209
 C       -14.7715100345       -0.7395688773        3.3313707537
 O       -15.0212413119       -0.0308830442        4.2568854780
 C       -14.2671196677       -0.0305177614        1.9725215129
 C       -12.8568879360       -0.2715664484        1.6163471735
 O       -12.5439234754       -0.0342009026        0.4521958673
 C       -11.8053672267       -0.6010716943        2.8008605477
 C       -10.3546877090       -1.0454307323        2.2364848930
 C       -10.4346132056       -2.3359934162        1.4376629978
 O       -11.5312760954       -2.8308389127        1.2676449757
 C        -9.2561036175       -2.9057100948        0.4491679015
 C        -9.2338953502       -1.9406486972       -0.8390643068
 O        -9.5008321696       -0.7326928458       -0.8013348920
 C        -8.9365977382       -2.6642035316       -2.0993795410
 C        -9.0612857171       -1.8101512525       -3.5237832741
 C        -7.6973989527       -1.9875929474       -4.2101174187
 O        -6.8810117186       -2.8569975521       -3.9419293192
 C        -7.2749853214       -0.9242673765       -5.3126749201
 C        -7.3064294797        0.4507420200       -4.6243007193
 O        -6.6964750993        0.6354051931       -3.6082930770
 C        -8.2229763574        1.6756749929       -5.0556029321
 C        -9.7132891484        1.4770369311       -5.0836766067
 C       -10.0865009201        2.1036947038       -3.6696037490
 O       -10.2339828231        1.2152443217       -2.8196242276
 C       -10.5461592625        3.4610910136       -3.2700440621
 C        -9.7520934861        4.0459439127       -1.8908068774
 O        -9.4038979896        3.3255069335       -0.9957690956
 C        -9.5388281259        5.5686381898       -1.8122288199
 C        -8.5710521394        6.2881980022       -0.7735928616
 C        -9.2859158805        6.7690991616        0.4502200959
 O       -10.5178536056        6.6541366922        0.4688809064
 C        -8.6832426277        7.5337956635        1.6044937139
 C        -9.3306485088        8.9783986820        1.4789669379
 O        -9.5015169407        9.5957288819        0.4794575949
 C        -9.7826146661        9.5221775338        2.8984274550
 C       -10.0158915965       11.0489184931        2.7197010522
 C        -8.6717259590       11.9934898603        2.3834797569
 O        -7.5165093843       11.6409518937        2.3260804405
 C        -9.1563363399       13.5095976358        2.1528363829
 C        -9.9043722472       14.0838460544        3.5564519029
 O       -11.0885202172       14.3178957790        3.7266022051
 C        -8.9454224065       14.4333712446        4.6796561505
 C        -7.9697547029       14.2517562273        1.8653655387
 C       -10.1549794959       13.4995730618        0.9511086336
 C        -9.0349297508        6.6813065729        2.8359553692
 C        -7.1625829152        7.6699647743        1.6754123228
 C       -10.5554551319        4.3898230606       -4.4702458711
 C       -12.0812916051        3.3491467970       -2.7506948648
 C        -5.7475503691       -1.0625863418       -5.5634725975
 C        -8.0325764642       -0.8851300872       -6.6606997891
 C        -7.9256889344       -2.8188514858        1.2921567516
 C        -9.3478416708       -4.4194965126        0.0331548581
 C       -15.1986676652       -0.6515578582        0.8024388025
 C       -14.5354431989        1.4468953117        2.0574717803
 H       -15.6318773276       -2.6385414753        4.1532058050
 H       -13.9253078125       -2.6217930839        3.7678684703
 H       -14.9964751374       -2.3938170961        2.3457283354
 H       -12.2511106447       -1.3034393803        3.5621038278
 H       -11.6989075052        0.4168036184        3.2708316555
 H        -9.7203643745       -1.3116352727        3.0722534896
 H        -9.8474912617       -0.3357087834        1.5965732493
 H        -9.6688696020       -3.4458429715       -2.2336230641
 H        -7.9101874107       -3.1095970661       -1.9808053109
 H        -9.4358453775       -0.8193764969       -3.3419917373
 H        -9.9547133817       -2.3036298273       -4.0689798283
 H        -7.9767346624        1.8689853329       -6.0460401748
 H        -7.7582699564        2.5280436872       -4.4348020749
 H       -10.0223631981        0.4040523955       -5.0293936919
 H       -10.3280361336        1.9833133876       -5.8390026151
 H       -10.5404098962        5.8664799059       -1.6927494001
 H        -9.1146400033        5.8096097416       -2.8325844255
 H        -8.0952292786        7.1643871942       -1.2762857789
 H        -7.6944567303        5.6284812959       -0.5203834662
 H        -8.9672999378        9.3376335043        3.5567978724
 H       -10.6056042352        9.1057116292        3.4121122671
 H       -10.6197572716       11.5057823897        3.5555547961
 H       -10.6013924093       11.1174464190        1.8453454862
 H        -8.8495341309       15.5232865524        4.7978198629
 H        -7.9658391138       14.0897526846        4.4244561655
 H        -9.1873946720       14.0195205184        5.6956188020
 H        -7.9807904159       15.2726889960        1.4495273977
 H        -7.6091472973       13.7238414691        1.0159923107
 H        -7.0953091777       14.3930998386        2.5672395955
 H       -10.5179283134       14.5337660135        0.7371324903
 H       -11.0940694296       12.9479465395        1.1639808783
 H        -9.7855039929       13.1114257519       -0.0172110796
 H        -8.3645199498        5.9240576124        2.7611289983
 H        -9.9680700040        6.1652613567        2.8323502969
 H        -8.9811642094        7.3786800645        3.6752221453
 H        -6.6660297551        7.9560337855        0.7564613126
 H        -6.6984016852        6.7255125536        1.9207079795
 H        -6.9301673031        8.3425063520        2.5386093852
 H       -10.6813031393        3.8353768348       -5.3760582341
 H        -9.7562939728        5.0426215307       -4.4065822490
 H       -11.3107022758        5.2038192193       -4.4592592364
 H       -12.5764935211        2.9587717575       -3.5933486169
 H       -12.5135930180        4.2925978649       -2.4147050240
 H       -12.0023309594        2.7034627505       -1.8966779193
 H        -5.4119570283       -1.2645281959       -4.5590590085
 H        -5.3476906666       -0.1117073628       -5.9295006533
 H        -5.6032652643       -1.9191330296       -6.1922553530
 H        -7.3826574064       -1.4151590880       -7.3604016905
 H        -8.2659769064        0.0879492979       -6.9763471604
 H        -9.0170267209       -1.3467194461       -6.6266340131
 H        -7.2224173103       -3.5085340018        0.8312190326
 H        -8.0052780630       -3.3422724332        2.2897390455
 H        -7.5444016026       -1.7817685712        1.4057852268
 H        -8.2903775299       -4.6666663362       -0.4121634591
 H       -10.0679298927       -4.6706348110       -0.7405393941
 H        -9.6658657882       -5.0349946939        0.8589045235
 H       -15.1706967445       -1.7213534530        0.8322188328
 H       -14.9349112435       -0.1209302020       -0.0519242460
 H       -16.2509615861       -0.3832718242        1.0630005861
 H       -14.0833825628        1.9278396239        2.8997155517
 H       -15.5721113256        1.4459549353        2.2416087402
 H       -14.2961878448        2.1220553815        1.1575938705
 Na      -10.5173235827        1.1851714725       -0.5164374062
