117

 C       -15.0353418249       -2.2063235013        3.4523802914
 C       -14.7436363263       -0.6186129432        3.3660978377
 O       -14.8809272323        0.1126548725        4.3374003442
 C       -14.2838319069        0.0413953544        1.8526678634
 C       -12.7596656038       -0.1077112141        1.7443757240
 O       -12.3281453497        0.1327178565        0.6218609901
 C       -11.8650704032       -0.5961980974        2.8910806246
 C       -10.5899362668       -1.2103057313        2.3551945167
 C       -10.7366797104       -2.3550155726        1.2499588310
 O       -11.8431075830       -2.8446464346        1.2248545909
 C        -9.5013961308       -2.9496253334        0.5387315647
 C        -9.1667846777       -2.0636847424       -0.7595857500
 O        -8.9904961636       -0.8832882561       -0.7281986403
 C        -8.8526641789       -2.7574418650       -2.1199038623
 C        -8.7730392391       -1.8429575272       -3.2721705901
 C        -7.5389292641       -2.0791414491       -4.2982088624
 O        -7.2053131343       -3.2014875374       -4.5658339067
 C        -7.0108127629       -0.8583424537       -5.1228587532
 C        -7.0970828005        0.5719453691       -4.3727486734
 O        -6.6396616456        0.6459350812       -3.2382655217
 C        -7.8615036747        1.6960324778       -4.9699218924
 C        -9.3359954325        1.6440121493       -4.7679187080
 C       -10.0314208593        1.9500395077       -3.4187141954
 O       -10.2192385460        1.0439103550       -2.7029999804
 C       -10.8083327858        3.3681510832       -3.2598759013
 C       -10.0690941632        4.0216419951       -1.9865554628
 O        -9.9274683815        3.3743165238       -0.9858433106
 C        -9.7016654957        5.6029454534       -2.0427604590
 C        -8.6292244917        5.9672825059       -0.9565545423
 C        -9.1931107503        6.7498876084        0.2648588310
 O       -10.3109280810        6.4292647810        0.4264728767
 C        -8.5739572121        7.5479976844        1.5193556882
 C        -9.2664574899        9.0739149388        1.5093759435
 O        -9.4385893805        9.4940293323        0.4050208863
 C        -9.3573216859        9.7709063450        2.8716440504
 C       -10.0141083978       11.1509007922        2.8522671761
 C        -8.8958687153       12.0233954163        2.2121504720
 O        -7.7908743497       11.5220336950        1.9911489466
 C        -9.1001731443       13.6864735706        2.0806124886
 C        -9.7386659200       14.0970884718        3.3854967389
 O       -10.8764900780       14.4243508598        3.3373836329
 C        -8.8699972363       14.1845668847        4.7316548558
 C        -7.6627698627       14.4793940466        1.8187089745
 C       -10.1574245909       13.8647976280        1.0573432657
 C        -9.0931134683        6.8846023899        2.8187329122
 C        -7.0759751962        7.7490444850        1.4126401643
 C       -10.7928219305        4.3954826401       -4.4558269700
 C       -12.2095044236        3.1738804735       -2.7267247178
 C        -5.4589527932       -1.1318632896       -5.4007843540
 C        -7.7077819017       -1.0069019999       -6.5210218891
 C        -8.2359574643       -2.8355719565        1.2929873049
 C       -10.1128633057       -4.3918297838        0.2489873192
 C       -15.0750222317       -0.5206287410        0.6634093532
 C       -14.6374578173        1.5693545539        2.0236147831
 H       -15.1034956399       -2.1264493278        4.4863375456
 H       -14.0542940227       -2.7389907216        3.3934905564
 H       -15.8627389494       -2.5403501722        2.8727385132
 H       -12.4814617046       -1.2507979225        3.3974018405
 H       -11.5575968273        0.2079066462        3.5574294437
 H       -10.0378785448       -1.5677241998        3.2633858057
 H        -9.9871306303       -0.4176102194        1.8498555519
 H        -9.6294276498       -3.5203562265       -2.3766893798
 H        -7.8651853710       -3.2603461984       -2.1843466324
 H        -8.7856001532       -0.7179415936       -2.9381792142
 H        -9.6430053171       -1.8804790459       -3.8954367407
 H        -7.7216779820        1.8791290677       -6.1194598206
 H        -7.5427085949        2.5902208809       -4.5313022249
 H        -9.8612961862        0.7448226512       -4.9996186645
 H        -9.8195054467        2.4018144071       -5.3412480688
 H       -10.7373405890        6.0964542162       -1.7914533812
 H        -9.2282006479        5.8232322004       -2.9658867615
 H        -7.9499096703        6.5957492537       -1.5264307701
 H        -7.9673429765        5.1614596877       -0.5942701963
 H        -8.4211996538       10.0303178642        3.4296713177
 H        -9.8351025337        9.1456572970        3.6587959577
 H        -9.9916335468       11.4692368836        3.8801096147
 H       -10.9788750575       11.4884180387        2.3559785655
 H        -8.7033371548       15.2195664136        4.9778780348
 H        -7.8522891726       13.7261603682        4.6466376938
 H        -9.3534910680       13.7822309865        5.6058522576
 H        -7.5835910526       15.2859586373        2.5424100275
 H        -7.3430295312       15.0506001390        0.9155200983
 H        -6.7979977581       14.0318398528        2.2535489743
 H       -10.5775153068       14.8975914255        0.9609294976
 H       -11.0182284456       13.1458524200        1.1067360294
 H        -9.7760261106       13.5896562941        0.0470359430
 H        -9.4192774595        5.8091195175        2.7756939118
 H       -10.1249996345        7.3267839870        2.9385613223
 H        -8.5450661723        7.3314728338        3.5728434516
 H        -6.7918705722        8.3160973079        0.4941336060
 H        -6.3666385249        6.9064314657        1.4457283125
 H        -6.8118336248        8.4904554281        2.1970237058
 H        -9.8456595990        4.1941966854       -5.0456153390
 H       -11.0558772156        5.4638231985       -4.2177706587
 H       -11.5867099659        4.2600257032       -5.2074231402
 H       -12.8008531758        2.6132466980       -3.4906216687
 H       -12.5517773293        4.2321698464       -2.7987816548
 H       -12.2229148349        3.0296503908       -1.6221371395
 H        -4.8611124942       -0.6856037269       -4.5650957294
 H        -5.2927251205       -0.4941132850       -6.2792530481
 H        -5.3843448000       -2.2070380423       -5.6183589145
 H        -7.1568828423       -1.5174411374       -7.2288565287
 H        -8.1256450706       -0.0407399055       -6.7814861755
 H        -8.7042252262       -1.5137309962       -6.2687956874
 H        -7.4329506832       -2.8310574291        0.5413476031
 H        -7.9126095591       -3.7244349343        1.7706338543
 H        -8.3101518609       -2.0306374430        2.0073668485
 H        -9.5718787591       -4.8818581280       -0.4621789276
 H       -11.1404117277       -4.3539987097       -0.1135027263
 H       -10.2275534406       -4.9419784043        1.1889878911
 H       -15.0038841330       -1.6401103729        0.6845016496
 H       -14.9011741152        0.0765982912       -0.2489695472
 H       -16.0566283041       -0.3716268013        0.9704952653
 H       -14.7775910546        1.7402612353        3.1352197636
 H       -15.5562690588        1.9779704181        1.5299564314
 H       -13.8660542045        2.2002553672        1.7593107132
 Na      -10.7273037516        0.9887361431       -0.5293733225
