117

 C       -15.5570357397       -1.7630990044        3.4266827695
 C       -14.7413007805       -0.4303461610        3.3136169714
 O       -14.5287080527        0.1488529422        4.3351621505
 C       -14.3395805620        0.2623813157        1.9397490808
 C       -12.6933486121        0.2743078194        1.7792798064
 O       -12.2028482248        0.8703725670        0.8198308887
 C       -11.7987982861       -0.4526895639        2.8620572279
 C       -10.7285169409       -1.3031577631        2.2964239101
 C       -11.0578018348       -2.2844951529        1.1955041118
 O       -12.1727101262       -2.4121993116        0.7278101243
 C       -10.0005365745       -3.1968273171        0.6172777200
 C        -9.4880898718       -2.3464925173       -0.5480592684
 O        -9.5349224884       -1.1495811855       -0.5066211089
 C        -8.8299436747       -2.8028225176       -1.9160066749
 C        -7.6951179211       -1.9282985821       -2.4138076995
 C        -7.5830863306       -2.0232698557       -3.9952565754
 O        -7.9066886562       -3.0291026271       -4.5454801201
 C        -6.8088768815       -0.8077358564       -4.8056176576
 C        -6.9634478563        0.5253889006       -3.9826484094
 O        -6.4405520546        0.4366041508       -2.8962222679
 C        -7.5320512032        1.8568358255       -4.4401107411
 C        -9.1232538295        1.9722242772       -4.8174775144
 C       -10.0311219846        2.0129721691       -3.5146492955
 O        -9.8576455889        1.0379399525       -2.8152239247
 C       -10.9928515239        3.1361554267       -3.1875274203
 C       -10.3060227566        3.7495498029       -1.9465046722
 O       -10.4190626426        3.1896341783       -0.8486221497
 C        -9.5145700078        5.0933873536       -2.0899587505
 C        -8.9077833781        5.5890307797       -0.7404749586
 C        -9.5748084852        6.5389557899        0.3134406938
 O       -10.7659528470        6.4822789664        0.6007914221
 C        -8.6104813785        7.2798588271        1.2342755385
 C        -9.2125340577        8.8564844135        1.2538820014
 O        -9.5618431225        9.2624350806        0.2177970797
 C        -9.1856492884        9.8322314342        2.4958708330
 C        -9.6734079292       11.3463920745        2.2387339252
 C        -8.5276301652       12.2418955394        1.7440129078
 O        -7.6155191695       11.7417176579        1.1479880329
 C        -8.8141845287       13.7716136499        1.8030415620
 C        -9.5598409390       14.1051463964        3.3399748148
 O       -10.5831427871       14.6600734366        3.2607138397
 C        -8.7672323385       13.8066674031        4.6234414910
 C        -7.6086501515       14.6832358886        1.9987147520
 C        -9.8720652577       14.1657628910        0.7596317071
 C        -8.6706177528        6.7332917895        2.7019733874
 C        -7.2656124560        7.7240745047        0.6113324897
 C       -11.1358107992        4.3799547711       -4.2747203084
 C       -12.3693374187        2.4944544320       -2.8033375313
 C        -5.3510098770       -1.2188187041       -4.6860972585
 C        -7.1537922593       -0.6472820581       -6.3661884463
 C        -8.8593989791       -3.6491985583        1.6908587210
 C       -10.6779533352       -4.4049352924        0.0021969414
 C       -14.9740831259       -0.3817410394        0.7034840855
 C       -14.9346286738        1.7127711500        2.0501411321
 H       -15.2051697430       -2.1289029317        4.3610368063
 H       -15.1367000740       -2.4531227361        2.6321109389
 H       -16.6273180047       -1.5768157965        3.3492716733
 H       -12.4800071389       -1.0498153300        3.2538677837
 H       -11.4323922844        0.2224756132        3.6601206765
 H       -10.1865838371       -1.9078011248        3.0841202810
 H        -9.9239026648       -0.6935962790        1.8173043453
 H        -9.5767160154       -2.7765366887       -2.7850672429
 H        -8.4828361892       -3.9093680973       -1.9781209061
 H        -6.5966849692       -2.2087705014       -2.0212670912
 H        -7.8043190976       -0.8787271422       -2.0728472940
 H        -7.0459697207        2.3990263937       -5.3119358336
 H        -7.3894026703        2.5760716777       -3.7071055343
 H        -9.4162455900        0.9828367272       -5.2090979019
 H        -9.4111938116        2.7042088452       -5.5741599259
 H       -10.2022011459        5.9002478799       -2.5411022560
 H        -8.6753798401        4.8267710061       -2.6799487684
 H        -8.0139905009        6.0862247529       -1.0598443277
 H        -8.3808737683        4.7319594651       -0.1878585121
 H        -8.2382356631        9.6798404849        3.0001427031
 H        -9.9614099797        9.5171708707        3.1427909489
 H       -10.0776169267       11.8754589789        3.1089906323
 H       -10.4915037293       11.1968653964        1.5014300956
 H        -7.9427051661       14.4513663887        4.7028301458
 H        -8.2603959219       12.8682286671        4.3029713747
 H        -9.2918229868       13.8579415253        5.6112301513
 H        -6.5946639665       14.2219982137        1.9065326505
 H        -7.7266657128       15.2164344294        2.9291749144
 H        -7.3251794536       15.5997640716        1.3651589642
 H        -9.7442095023       15.2263347448        0.5939813102
 H       -10.8778038737       13.7433238696        0.9544228843
 H        -9.7343325039       13.7655035303       -0.2881578224
 H        -7.9265833308        5.9448928483        2.8975023103
 H        -9.6937097745        6.3425610201        2.8352142732
 H        -8.4162574513        7.4761079162        3.3765973616
 H        -7.3794001926        8.0779418946       -0.4191880705
 H        -6.6456115270        6.8931164492        0.5211120692
 H        -6.6656313281        8.5716002875        1.0755050542
 H       -11.4185297510        5.3399855421       -3.7414037165
 H       -11.8577136150        4.4172052207       -5.0757092605
 H       -10.1179502389        4.5170624177       -4.7573722727
 H       -12.7848324486        2.0763212533       -3.6908591403
 H       -12.9847376100        3.3843904737       -2.5837779574
 H       -12.2322587129        1.8874689505       -1.8682157596
 H        -5.1826948705       -1.7216978952       -3.7019582698
 H        -4.6654774891       -0.3552474466       -4.7049531019
 H        -5.2589987466       -1.8667061474       -5.5266416085
 H        -7.4080824468       -1.5912130074       -6.6632149647
 H        -6.2849751096       -0.3558005208       -6.8750774029
 H        -8.0368304035        0.0410574220       -6.5660521717
 H        -8.7915477341       -4.7328018860        1.3902852241
 H        -9.1932069239       -3.5917473738        2.7319154177
 H        -7.9481320672       -3.0900643816        1.7473304230
 H        -9.9966418720       -5.2227521502       -0.3355361153
 H       -11.2256064537       -4.0275324161       -0.8747805421
 H       -11.4151165029       -4.8972938925        0.6645877931
 H       -14.4913858986       -1.3825736709        0.4176475533
 H       -14.8531143382        0.3077862277       -0.1307452424
 H       -16.0045252258       -0.4498890603        0.9189912792
 H       -14.3647012660        2.2344349348        2.8690414107
 H       -15.9867598265        1.9033572234        2.2356314280
 H       -14.7401820794        2.2276840482        1.1561577395
 Na      -10.1884969947        1.1459605774       -0.4703572498
