117

 C       -15.6186592335       -1.5938901800        3.2632231561
 C       -14.7149240067       -0.3699001351        3.3787392409
 O       -14.3432312290        0.2492259329        4.3465573043
 C       -14.3081144296        0.2998287812        1.9200379526
 C       -12.7886512355        0.3310888487        1.7311411896
 O       -12.2382923811        1.0387912069        0.8733131481
 C       -11.9201766674       -0.4315398924        2.7371830824
 C       -10.7735574949       -1.2573075744        2.2490410301
 C       -11.1714199487       -2.2858841736        1.1300852532
 O       -12.3007713469       -2.2209196978        0.6725456332
 C       -10.0396674499       -3.3490918743        0.5109630593
 C        -9.3470842993       -2.3444625178       -0.4466728118
 O        -9.6690092478       -1.1621333555       -0.3936307624
 C        -8.7504878742       -2.9442941283       -1.8223420493
 C        -7.6759294361       -2.0943659343       -2.3139976767
 C        -7.5890162593       -1.8676339125       -3.8532698586
 O        -8.1809015085       -2.7314525560       -4.5053523368
 C        -6.7693500807       -0.7897169385       -4.6456955676
 C        -6.8618701899        0.6791439347       -3.9311654502
 O        -6.4067679263        0.7170966486       -2.7846359319
 C        -7.4492982348        1.9886850708       -4.4367582009
 C        -9.0057808625        2.1158115776       -4.8445167126
 C        -9.8978285702        1.8824735741       -3.6194650367
 O        -9.7442725783        1.0570786640       -2.7177063491
 C       -10.9893007834        3.1001445710       -3.2039220752
 C       -10.4370219610        3.7855898256       -1.8606241783
 O       -10.3570131402        3.2247935722       -0.7566581979
 C        -9.6748508439        5.1234747472       -1.8607196067
 C        -8.8086100151        5.4086931236       -0.6652280923
 C        -9.4647109585        6.4537683298        0.3583649744
 O       -10.7270793269        6.5002245840        0.4640233916
 C        -8.6237632842        7.5144344591        1.2607359652
 C        -9.2360218229        8.9299718474        1.0806911606
 O        -9.8097024171        9.2362090751       -0.0079854759
 C        -9.0642928987        9.8216943058        2.2933542439
 C        -9.7120814782       11.2420731992        1.9697941937
 C        -8.4922188323       12.1451407649        1.6309090203
 O        -7.4588843758       11.8495885047        1.0817337336
 C        -8.7681150467       13.7695473253        1.9777654733
 C        -9.4900928624       14.0572119199        3.2747125021
 O       -10.5635535541       14.6266336636        3.2609191374
 C        -8.8200595246       13.6415900664        4.5315959581
 C        -7.4185376813       14.5353363754        1.7891996635
 C        -9.7843464830       14.1485072178        0.8624193157
 C        -8.6790462153        6.8555852769        2.6400754165
 C        -7.1913116665        7.7571746783        0.5919015413
 C       -11.2149637767        4.1078118480       -4.2899490772
 C       -12.4703341427        2.4088798178       -2.8169871612
 C        -5.2197251866       -1.4066314778       -4.4678737052
 C        -7.1931851204       -0.7823401511       -6.1338925448
 C        -8.9324231780       -3.9061664196        1.5346293656
 C       -10.9066594735       -4.4598605916        0.0040660470
 C       -14.9218896402       -0.4259658842        0.5923679910
 C       -14.8790268510        1.7188296941        2.1753627283
 H       -15.6563183701       -1.9998806298        4.2963974582
 H       -15.1858252826       -2.2558894930        2.5532696124
 H       -16.5737127835       -1.1480590743        2.9276892439
 H       -12.6211562095       -1.0264523090        3.3666754518
 H       -11.5525542789        0.3657176361        3.3542184622
 H       -10.2906123837       -1.8692564048        3.1206193636
 H        -9.9619839492       -0.6622844133        1.8706222705
 H        -9.5398590824       -3.1116648432       -2.5642827877
 H        -8.3875715063       -3.9836407778       -1.6302635460
 H        -6.7089622706       -2.4576762999       -2.0881810744
 H        -7.6782140352       -1.1068299310       -1.8011790125
 H        -7.0296123029        2.4545217678       -5.2865233445
 H        -7.2347142709        2.8391591214       -3.6864159538
 H        -9.1299265454        1.3167120803       -5.5815394766
 H        -9.3688456239        2.9708016457       -5.3203175368
 H       -10.4838436129        5.8300196169       -1.9422838289
 H        -9.0002743004        5.0429956665       -2.7704535296
 H        -7.8098413262        5.6352807744       -0.9074060663
 H        -8.6521520826        4.3927731544       -0.1651522548
 H        -7.9272410768        9.8286206298        2.4402644174
 H        -9.5724254254        9.3705439408        3.1898401526
 H       -10.1671053631       11.9132486899        2.7860842073
 H       -10.4093888477       11.0776057321        1.2189466440
 H        -8.0342320018       14.3676203946        4.6987522837
 H        -8.3050509654       12.7103469080        4.4841172255
 H        -9.5774291168       13.8037244721        5.3572622516
 H        -6.7930772264       14.1543446683        0.9574768975
 H        -6.8038799077       14.9861651235        2.5381269338
 H        -7.6782085122       15.4999778779        1.2377949467
 H        -9.9648652669       15.2525694045        0.7704667446
 H       -10.6466485007       13.4708430498        0.8187457047
 H        -9.3545374536       13.9707178085       -0.1889073495
 H        -7.9451333788        6.0687236979        2.5718101408
 H        -9.6729210964        6.4202849106        2.6075701501
 H        -8.4030094516        7.2861390059        3.7021486908
 H        -7.3251957060        8.1853985098       -0.4184068201
 H        -6.5625521902        6.8886737057        0.4268853579
 H        -6.5488587837        8.5657984074        1.0720521017
 H       -12.1930870561        4.5431357461       -4.4115286445
 H       -11.1488703155        3.6232374881       -5.2618310968
 H       -10.4066334003        4.9041303724       -4.3768742382
 H       -12.8394415282        1.6540599366       -3.5326940850
 H       -13.2285102996        3.2601292276       -2.7265737255
 H       -12.1789521259        2.0836292640       -1.7813174516
 H        -5.2233960957       -1.9543932485       -3.5116178615
 H        -4.4798366989       -0.5456360815       -4.3548643376
 H        -5.0870472836       -2.0358757636       -5.3528270294
 H        -7.2742614028       -1.8716007852       -6.5201774865
 H        -6.4772430973       -0.2132367558       -6.7004814072
 H        -8.1927880970       -0.3995168906       -6.1342825689
 H        -8.7145996043       -4.9197013351        1.2181935326
 H        -9.4022482930       -3.8964154924        2.5510216820
 H        -8.0419237599       -3.3004860748        1.6956015340
 H       -10.2507450110       -5.2426023462       -0.5119298457
 H       -11.5531563031       -4.0533940898       -0.7099807670
 H       -11.4016890888       -4.9917985900        0.7500409793
 H       -14.5978186265       -1.4578761762        0.5187506570
 H       -14.6275489871        0.0437936021       -0.3367849693
 H       -16.0208387950       -0.2996360617        0.8040986360
 H       -14.1816792990        2.3492190224        2.7104115316
 H       -15.7561421085        1.7383370709        2.7640930390
 H       -15.2567259207        2.2808171319        1.2418506364
 Na      -10.2223911230        1.0440050672       -0.3448172781
