117

 C       -15.6721746660       -1.4614432735        3.2113497720
 C       -14.7310861603       -0.3029462209        3.2599017248
 O       -14.2106845981        0.1637713545        4.2874854772
 C       -14.3792142390        0.4144271665        1.9879144829
 C       -12.7815474016        0.4190867170        1.7240282248
 O       -12.3292004464        1.1348698759        0.8648216416
 C       -11.9332773266       -0.4635944048        2.7552966616
 C       -10.7089268868       -1.2129298024        2.2783222799
 C       -11.2646961808       -2.3009171858        1.2164449648
 O       -12.3020038572       -2.1077980754        0.6464985008
 C       -10.3197178721       -3.3870544964        0.5104918043
 C        -9.5972658182       -2.4579144055       -0.5877894105
 O        -9.5115534603       -1.2432379033       -0.3987678643
 C        -8.6363339025       -3.0370285733       -1.6116986642
 C        -7.5096406570       -2.0326565565       -2.1884905796
 C        -7.7334627413       -1.8441473725       -3.7621837355
 O        -8.5249901004       -2.3908268363       -4.4996188800
 C        -6.7783761536       -0.7529808985       -4.4000535495
 C        -6.7862806142        0.6727568850       -3.7104034887
 O        -6.3253511123        0.9809520640       -2.6198105465
 C        -7.3945535003        1.8897567518       -4.5363719002
 C        -8.8934881089        2.1581253321       -4.7361897595
 C        -9.7756863377        2.0409899123       -3.3769027521
 O        -9.6168571865        1.0278768346       -2.7415534374
 C       -10.9461765500        3.1189915249       -3.0989576279
 C       -10.3878527580        3.8083766819       -1.7467060341
 O       -10.4348613468        3.1448460393       -0.7705820477
 C        -9.8187604592        5.2220416659       -1.7221571732
 C        -8.8080782319        5.4040383601       -0.5753298737
 C        -9.4074844625        6.4591026283        0.2291733480
 O       -10.5802878235        6.4669039037        0.3111101729
 C        -8.6757040777        7.4828618016        0.9976556013
 C        -9.4119959350        8.8865761885        0.9178580578
 O       -10.0095048650        9.2346216003       -0.0641725163
 C        -9.0784640435        9.8136299290        2.0014098582
 C        -9.5464766179       11.2611165915        1.7832640026
 C        -8.4447840325       12.2783172890        1.6030576506
 O        -7.4123344798       11.8849012586        1.1056728584
 C        -8.7367452663       13.7832520657        1.7673947745
 C        -9.4235895082       14.0296771042        3.2574070623
 O       -10.5528865363       14.5646294643        3.2907490909
 C        -8.7513325095       13.4361515788        4.6773622330
 C        -7.3534879688       14.3709864925        1.5261471398
 C        -9.6810172389       14.1883843599        0.7022374967
 C        -8.5261624508        7.0116741759        2.4828718776
 C        -7.1425938251        7.6123503341        0.6868049743
 C       -11.3243623726        3.7986721032       -4.3646438064
 C       -12.2966481863        2.3262340183       -2.7917779887
 C        -5.2577774194       -1.3715684585       -4.3009880850
 C        -7.1382561246       -0.8308333820       -5.8231710521
 C        -9.1978075862       -3.9868200211        1.3649904872
 C       -11.0572804303       -4.5646415310       -0.1092456324
 C       -14.8865217556       -0.3528710148        0.7485650405
 C       -14.8014245526        1.8487917261        2.0272029612
 H       -15.9520316251       -1.5593183462        4.2787135481
 H       -15.3036933299       -2.3590089412        2.7329807988
 H       -16.5112307323       -0.9989801844        2.6943671867
 H       -12.6769534217       -1.1879579784        3.3345267875
 H       -11.6908784495        0.3077146837        3.4896079147
 H       -10.2383046779       -1.7361383799        3.0794148890
 H        -9.8965889308       -0.6381433901        1.8224748297
 H        -9.1637715461       -3.4021923299       -2.4702580523
 H        -8.2841804402       -3.9259393443       -1.1932986222
 H        -6.5450166205       -2.3095056838       -2.0687339497
 H        -7.5075162486       -1.0428177925       -1.7778438433
 H        -7.0609087728        2.0891389999       -5.5292979806
 H        -7.0184242793        2.8674728302       -4.0672652676
 H        -9.2166570111        1.4590844458       -5.5141785914
 H        -9.1425177042        3.0994687446       -5.2049941798
 H       -10.7208680150        5.6873951619       -1.4569270149
 H        -9.3759355576        5.4890005575       -2.7288304258
 H        -7.7067924495        5.4532702746       -0.7747199004
 H        -8.8888748831        4.4741259841       -0.0977468838
 H        -7.9422507009        9.7945898098        2.0370209821
 H        -9.5290778369        9.5359943091        3.0233650477
 H       -10.2985025001       11.6003940055        2.4764382768
 H       -10.0202217305       11.2918299502        0.7925503628
 H        -7.9201990889       13.9971088550        5.2075987275
 H        -8.4511714252       12.4127379749        4.7047644004
 H        -9.6125808486       13.6243366039        5.2370074410
 H        -7.0955995628       14.3224583720        0.4962154440
 H        -6.4116479457       14.1712291653        2.1276042713
 H        -7.3845952227       15.4081704079        1.6379127261
 H       -10.1322379239       15.1784917961        0.9455405325
 H       -10.4253930256       13.4034924860        0.5156104066
 H        -9.2528694393       14.4337004157       -0.2639302530
 H        -7.8797431761        6.1048102630        2.6221299643
 H        -9.5496388902        7.0238216553        2.9054958903
 H        -7.8541484550        7.7691412322        3.0414430080
 H        -6.8036093183        8.0772541098       -0.2428459721
 H        -6.4445815123        6.6947403529        0.8063041123
 H        -6.8237115906        8.3124391726        1.3874128665
 H       -12.3300082500        3.6522434356       -4.7160594304
 H       -10.8320920591        3.3984018889       -5.2776155035
 H       -11.0325292943        4.7858381049       -4.4056660590
 H       -12.3869607454        1.4913516340       -3.6065948751
 H       -13.1432098085        3.0179778206       -2.8859808996
 H       -12.1271441494        1.8801696227       -1.8104325504
 H        -5.1398936659       -1.7900119466       -3.3209397766
 H        -4.5851741727       -0.5259988497       -4.3852455675
 H        -5.1541828386       -2.1208099369       -5.1484319223
 H        -6.8949392389       -1.8362076513       -6.2739037106
 H        -6.6596935496        0.0240928519       -6.4169391381
 H        -8.1922178618       -0.8225825467       -5.7635827153
 H        -8.6538427766       -4.7034230586        0.7824126528
 H        -9.5784533504       -4.3660638389        2.3138330702
 H        -8.4609894163       -3.1809004049        1.6740051973
 H       -10.3384597266       -4.9634520613       -0.7416601227
 H       -11.8935186455       -4.2976714564       -0.7364148802
 H       -11.2409210408       -5.3883801237        0.5514116885
 H       -14.5269517751       -1.3440320734        0.7752901304
 H       -14.2947372340        0.0139851380       -0.1258681513
 H       -15.9945472362       -0.2276969539        0.6127758903
 H       -14.1389616804        2.5426544554        2.4861046795
 H       -15.7087718699        1.8992250355        2.6638678008
 H       -15.2424138113        2.2791700069        1.1103227869
 Na      -10.3347293829        0.8719480940       -0.2296309654
