117

 C       -16.4820578827       -0.4028903238        3.4028601619
 C       -15.0382060883        0.0674879714        3.4905814400
 O       -14.4792412097        0.3053501271        4.5118854495
 C       -14.3479244075        0.5824759578        2.0014367642
 C       -12.7860032614        0.2394257615        1.8375289052
 O       -12.2487254638        0.6842696549        0.8314976961
 C       -12.0749478557       -0.7418767094        2.9373791806
 C       -10.9050827365       -1.5095961953        2.1265055699
 C       -11.4864624099       -2.1626410140        0.8890793237
 O       -12.6889931015       -2.0525329599        0.7413500289
 C       -10.6759340502       -3.2132259901        0.1468969108
 C        -9.4326282887       -2.5544842786       -0.5598557974
 O        -9.3723804571       -1.3475778316       -0.4953701276
 C        -8.5417254062       -3.3859757125       -1.3731899550
 C        -7.4578932106       -2.6817376888       -2.1821530684
 C        -7.8240444172       -1.4529322896       -2.9696820319
 O        -8.9327771332       -0.9773877631       -3.0276042067
 C        -6.6072242554       -0.7505476688       -3.7734488494
 C        -6.6385099599        0.6962640232       -3.1537070701
 O        -6.2116230196        0.8657573873       -2.0183953024
 C        -7.0245969537        1.8409678635       -4.0642770928
 C        -8.4796399794        2.0553108604       -4.4252010407
 C        -9.4505484759        2.0153194187       -3.1325509263
 O        -9.1048034810        1.1654505405       -2.3233292796
 C       -10.8584335664        2.4693109977       -2.9601497253
 C       -10.5065118316        3.4047780923       -1.8451285022
 O       -10.3429517459        2.9864362037       -0.6692047733
 C       -10.2216927402        4.8876653916       -2.0860756078
 C        -8.9792353197        5.5343057272       -1.1901175716
 C        -9.6436865221        6.2879933836        0.0615465154
 O       -10.7156870874        5.7917623833        0.5073326413
 C        -8.8174807054        7.5051913199        0.8339221374
 C        -9.4896083604        8.8906173134        0.4729768587
 O        -9.8377540381        9.0788675164       -0.6919272266
 C        -9.2193716760       10.2883649871        1.4260544978
 C        -9.2675010325       11.5635257016        0.7189439744
 C        -8.0645452991       12.5343547447        1.1857570582
 O        -6.9277107792       12.1294787757        1.1739920263
 C        -8.4442894794       13.9456259758        1.5070630469
 C        -9.0619693132       13.7914609928        3.1130679469
 O       -10.2010260731       14.1869402565        3.3078941456
 C        -8.2124650700       12.9622797970        4.0617921541
 C        -7.1275714755       14.7914168398        1.4108421405
 C        -9.4753834663       14.5054946185        0.3931380377
 C        -8.6545465911        6.9541058644        2.2179897229
 C        -7.5238334100        7.7527938137        0.1188057137
 C       -11.4971447557        3.4743948645       -4.1551705528
 C       -11.9383750152        1.3989707896       -2.4663231156
 C        -5.1385448473       -1.2410150467       -3.6655238498
 C        -7.0781995037       -0.7330280701       -5.2802899298
 C       -10.0481804419       -4.2026588427        1.2065100683
 C       -11.4719369424       -3.9418399739       -0.9203556381
 C       -15.0814360142       -0.0388943277        0.7491529815
 C       -14.5955175044        2.0872526523        2.0555243379
 H       -16.8203635992       -0.4755678246        4.4154018629
 H       -16.3877718799       -1.4237097795        2.9224355560
 H       -17.2583075170        0.1706450749        2.9088941412
 H       -12.7921615274       -1.3544101003        3.3756931084
 H       -11.5906896877       -0.1390995254        3.8447355497
 H       -10.2283283927       -2.1192855042        2.6380848990
 H       -10.2848494870       -0.6551464481        1.7368351811
 H        -9.0904111013       -4.0732810309       -1.9335626386
 H        -8.1321404298       -4.0327411804       -0.6391072462
 H        -7.2694645537       -3.3175793008       -3.0992264805
 H        -6.5672384433       -2.4388647632       -1.7442125780
 H        -6.6115695555        1.7661918751       -5.1307709629
 H        -6.8836029734        2.7929670947       -3.7213682937
 H        -8.9327669342        1.3219836368       -5.1155625780
 H        -8.5797713271        2.9722733805       -5.0076924464
 H       -11.1034089485        5.4424489630       -1.6840038845
 H       -10.1660144173        5.1375096510       -3.1147391474
 H        -8.4109473224        6.1608984915       -1.8916915347
 H        -8.2422223798        4.9038330500       -0.7021197228
 H        -8.1324279885       10.1684658262        1.7725458521
 H        -9.8499286971       10.1634105404        2.3586157319
 H       -10.1579547495       12.0705975568        0.8145392661
 H        -9.3092311131       11.2655094281       -0.3676865588
 H        -7.2264238638       12.9640859337        3.7378473729
 H        -8.5971025143       11.9098061986        3.9621205062
 H        -8.3495785869       13.2285823510        5.1236546136
 H        -6.4951269228       14.6412364958        0.5795541548
 H        -6.4131228806       14.3013178055        1.9884863279
 H        -7.0962252947       15.8437608834        1.7896052929
 H        -9.6983148945       15.5377099694        0.4054678887
 H       -10.5075480502       14.2282115701        0.6527903011
 H        -9.1233129391       14.1925093608       -0.6110281987
 H        -7.7057810195        6.2847177287        2.1363244105
 H        -9.5273848389        6.2300950445        2.5005975555
 H        -8.5455914060        7.5786656808        3.1024010785
 H        -7.7319484275        8.1399499858       -0.8852694789
 H        -7.0628808741        6.7988109209       -0.0759277282
 H        -6.6859330592        8.3077064129        0.6437063061
 H       -12.0387470928        4.2711450554       -3.6262932944
 H       -12.2111483847        3.1085192457       -4.8206806482
 H       -10.6316314947        3.9109442026       -4.6831790448
 H       -12.7984302061        1.7379607385       -3.0069014747
 H       -12.0678000114        1.6369078384       -1.3664856028
 H       -11.6418303253        0.3288523572       -2.6977455131
 H        -4.9091453366       -1.5718311654       -2.6031503768
 H        -4.4340938047       -0.5129325282       -4.1036842506
 H        -5.0791504874       -2.1232802420       -4.3001126579
 H        -7.7740657854       -1.5468054888       -5.4013639869
 H        -6.1916786725       -0.8054443491       -5.9083039564
 H        -7.6339461821        0.2445542866       -5.4870073428
 H        -9.9343521868       -5.2102238193        0.7369813315
 H       -10.7783900608       -4.3262891281        1.9731912786
 H        -9.0543756956       -3.9855923282        1.4449802804
 H       -11.2543272253       -5.0056396829       -1.1026270061
 H       -11.3584310876       -3.4088151160       -1.8149120802
 H       -12.4996257610       -3.8689192517       -0.6632640752
 H       -15.1461444892       -1.1914252772        0.8248555104
 H       -14.3696921781        0.1783553657       -0.1045527348
 H       -15.9919522291        0.4184545673        0.4778366399
 H       -14.4417647995        2.3920473443        3.1308858184
 H       -15.6122884668        2.4340566681        1.7848775923
 H       -13.9108840649        2.7380560840        1.5914916728
 Na      -10.3250329023        0.8312856273       -0.4985443678
