117

 C       -13.6819233446       -2.0966449929       -5.9117607664
 C       -12.4571081047       -2.8371537896       -5.4821373626
 O       -12.4596692597       -4.0596529270       -5.3493935974
 C       -11.2357664835       -1.9732110074       -4.9108982584
 C       -11.6167763551       -1.7145397943       -3.4526610391
 O       -12.1803481561       -0.6775796921       -3.1759165881
 C       -11.2357827101       -2.6865560579       -2.2696459488
 C       -12.0156798922       -2.1719302741       -1.0805090175
 C       -11.2588789905       -2.4965393337        0.3017679272
 O       -11.3658328206       -3.4616257160        0.9691377192
 C       -10.2565917409       -1.3463533828        0.9928220783
 C       -11.1969923832       -0.2120170838        1.5794069819
 O       -12.1829895883        0.2079060810        1.0364752453
 C       -10.7986409222        0.3162718930        2.9277255974
 C       -11.6047286829        1.5943673415        3.3360696826
 C       -10.5374390207        2.6711892047        3.6318332897
 O        -9.4111574979        2.6614716908        3.1936678110
 C       -11.0142346347        4.0574628239        4.3392204463
 C       -11.4878846275        4.9676628552        3.1337422203
 O       -10.7705772895        5.6632417146        2.4966624861
 C       -13.0694207685        5.0532927257        2.7062333580
 C       -13.3758011776        4.5937472145        1.1945328621
 C       -12.0923385608        4.8931208591        0.2830669088
 O       -11.2528840361        4.0241271441        0.1824735910
 C       -12.1089707461        6.2345867389       -0.5367626831
 C       -10.5757914393        6.5084811943       -1.0559366426
 O        -9.6827915831        6.2578542465       -0.2700448153
 C       -10.2549267183        7.0382080582       -2.5091964736
 C        -8.8503449351        7.6099270781       -2.7171907436
 C        -8.8434460925        8.9384598343       -1.9781992219
 O        -9.8772382898        9.4145738927       -1.5314939081
 C        -7.3717740134        9.6809904874       -1.8919567247
 C        -6.8346751966        8.8278767611       -0.5670346314
 O        -6.1235734739        7.8432263865       -0.8085974871
 C        -7.1216847765        9.2977842675        0.9107370783
 C        -6.0567018790        8.6888065606        1.8025374216
 C        -6.3484341849        7.1844284965        1.8280986813
 O        -7.5050721840        6.8763962464        1.8118530409
 C        -5.1918831470        6.0462766848        1.8116346134
 C        -5.7015783538        5.0401045209        0.7439814832
 O        -6.7372731889        4.4136047802        0.9580784955
 C        -4.8093152425        4.6136315291       -0.4697137689
 C        -3.8503083507        6.7718807339        1.5911295196
 C        -5.1862495631        5.2876593355        3.2241929742
 C        -6.4819789975        9.5325002108       -3.1147432969
 C        -7.6460652245       11.2321418226       -1.5881794657
 C       -13.1519440369        6.0265904266       -1.6652724500
 C       -12.5359570280        7.5342474839        0.3089740159
 C       -12.0808925217        3.8240341110        5.5342370835
 C        -9.7552204860        4.7850495436        4.8678018629
 C        -9.4068616660       -2.1268019424        2.0415792763
 C        -9.2744953478       -0.7096483133       -0.0671017473
 C        -9.9721221622       -2.9446245516       -4.9031106120
 C       -10.9934560772       -0.7437222589       -5.6879449246
 H       -14.3485797663       -2.9220900535       -6.3671729541
 H       -13.4534790722       -1.1681361806       -6.5450491168
 H       -14.1998935732       -1.7202821383       -5.0217630632
 H       -10.1469568616       -2.5350205537       -2.1568687686
 H       -11.5234539089       -3.6509837067       -2.4181515353
 H       -13.0228282911       -2.6453198466       -1.0756265550
 H       -12.3975548053       -1.1548626471       -1.1732550636
 H        -9.7643347535        0.6706337321        2.8828705989
 H       -10.9967874639       -0.5046950634        3.6528599161
 H       -12.2158947602        1.5333556632        4.2796445693
 H       -12.1966961514        1.8547087168        2.4793133610
 H       -13.3318475053        6.1230398031        2.7337144774
 H       -13.7811106166        4.4510664311        3.2799016234
 H       -14.3508452115        5.0760169441        0.9266612285
 H       -13.5299026668        3.5507211994        1.2275813821
 H       -10.9277557449        7.8591521672       -2.7476735021
 H       -10.4415102098        6.1953345148       -3.1981328034
 H        -8.6935031034        7.7745364279       -3.7829541734
 H        -8.1008116034        6.8888363886       -2.4963037855
 H        -8.1360250373        8.9655822477        1.1020532288
 H        -7.1759757293       10.4002751403        1.0323136637
 H        -6.2241938297        9.0225659938        2.8749745377
 H        -5.0137211923        8.8489643635        1.5209822750
 H        -4.6867625244        3.5237975921       -0.5791199838
 H        -3.7598386883        5.0310874234       -0.4352126903
 H        -5.1893669455        4.9109842196       -1.4976648318
 H        -3.5382850160        7.3491217936        2.4056345765
 H        -3.8815564494        7.4538192149        0.6545451840
 H        -3.0665674067        6.0005200592        1.4501392919
 H        -6.1918469804        4.8821710955        3.4451883594
 H        -4.7137906986        5.8814451403        4.0577939801
 H        -4.5117313722        4.4311818265        3.1509771645
 H        -6.9093409681        9.8856323451       -4.0827397484
 H        -6.3020629485        8.4745678014       -3.1399412858
 H        -5.5431407357       10.0285058096       -3.1521792101
 H        -6.7850175688       11.6374217060       -1.1525794906
 H        -8.4542653152       11.4151744769       -0.9962700916
 H        -7.8677428610       11.6825745351       -2.5144698563
 H       -14.1499777333        6.2953696339       -1.2971628530
 H       -13.1969060166        4.9468507235       -2.0224185636
 H       -12.8532825341        6.5466448126       -2.5444383123
 H       -11.8947382834        7.6508636671        1.1783188277
 H       -13.5812289228        7.6265975770        0.6621779600
 H       -12.2802531720        8.5212268935       -0.2136214446
 H       -12.9375650580        3.2958483669        5.0302772935
 H       -12.4732082015        4.7637685857        5.9739807021
 H       -11.5706810070        3.3047945854        6.3063382850
 H        -9.1296219015        4.1723588629        5.5090161181
 H        -9.9542559740        5.6133641885        5.4986396221
 H        -9.0595818412        5.1042241487        4.1415153938
 H        -9.0538388585       -3.0702996714        1.5934120903
 H        -9.9580273189       -2.4946318799        2.9441406251
 H        -8.5166821500       -1.5555239716        2.3127756125
 H        -9.8148092225        0.0098879883       -0.7558850762
 H        -8.7044698923       -1.4329006889       -0.6566207963
 H        -8.4638590707       -0.1418501374        0.3739961979
 H       -10.3258933726       -3.8095985093       -4.3964051391
 H        -9.1423561089       -2.4618250254       -4.3356717867
 H        -9.7076171944       -3.1257003745       -5.9688737489
 H       -10.4622276114       -0.0293681935       -5.0767273399
 H       -11.9074896316       -0.1380106250       -5.8790106265
 H       -10.4885060516       -0.9148362293       -6.6622181201
 Na       -8.8849307557        4.8478663150        1.4052702086
