117

 C       -16.6454675189       -0.0143164499        3.4110407763
 C       -15.1418235620        0.3411623667        3.4669369291
 O       -14.4803132321        0.2105858779        4.4862764890
 C       -14.4347968440        0.7535403015        2.0958626105
 C       -12.9317081653        0.1850139999        1.8896692332
 O       -12.3936958518        0.7200280304        0.9164981399
 C       -12.1837205981       -0.7498002919        2.9088369282
 C       -11.1833699755       -1.6013949508        2.1590719255
 C       -11.6722059357       -2.2065097669        0.9011111509
 O       -12.8584998600       -2.0939165040        0.6700024340
 C       -10.7295879614       -3.1941495979       -0.0242886737
 C        -9.4647233009       -2.6701564601       -0.5502220957
 O        -9.0048621004       -1.5822143600       -0.1864628551
 C        -8.5424122967       -3.5202805211       -1.4006694539
 C        -7.2891370773       -2.9283502491       -1.9627384975
 C        -7.7149292329       -1.6690148250       -2.8579612664
 O        -8.8949934994       -1.4627145098       -2.8927737645
 C        -6.7062435305       -0.7606471803       -3.6178331337
 C        -6.5492004954        0.7976660222       -3.0486340666
 O        -5.9110732363        1.0238389238       -2.0711300198
 C        -6.8976086710        2.0323100555       -3.8607194231
 C        -8.4662293509        2.2735797186       -4.2270691977
 C        -9.3380677996        2.0054391952       -3.0368466373
 O        -9.0164959686        1.3822550557       -2.0298206127
 C       -10.8669656751        2.5555305323       -3.0495283135
 C       -10.6779173962        3.6115141795       -1.7713033450
 O       -10.4590420963        3.2622597877       -0.6609260261
 C       -10.4247337155        5.1388749630       -2.1558222096
 C        -9.3022200891        5.7997112407       -1.4076733131
 C        -9.6658902038        6.1952181992        0.0769854683
 O       -10.5611283668        5.7667403841        0.6692864542
 C        -8.8625966561        7.4951295808        0.5147232698
 C        -9.4359275321        8.9939389617        0.0523519489
 O       -10.1293637152        9.0838649465       -0.9329913708
 C        -9.0232640203        9.9883198746        0.9915784115
 C        -9.0629643321       11.4412476965        0.3901369480
 C        -7.9536597679       12.3668827143        0.8814316940
 O        -6.8074315388       11.9582548128        1.0069471083
 C        -8.3349912580       13.7907549424        1.3721961930
 C        -8.9401950795       13.7152689648        2.8983000850
 O        -9.9955713756       14.1300002874        3.1116732224
 C        -8.0127994470       13.0877852031        4.1160154632
 C        -7.0912483585       14.8143786065        1.4822553752
 C        -9.5240920558       14.6120666844        0.6664396542
 C        -8.9598985295        7.4943342788        2.0713504401
 C        -7.2962387203        7.4539230265        0.0861226135
 C       -11.3668584342        3.1587276386       -4.3691111152
 C       -12.0281959751        1.5444501235       -2.5111680607
 C        -5.2353533603       -1.4253324240       -3.3410578686
 C        -6.9992888891       -0.8760016968       -5.1076864699
 C       -10.3070236077       -4.5073041692        0.8420926615
 C       -11.6530636657       -3.7921417790       -1.0929251297
 C       -15.2632688394        0.0427884707        0.9270223978
 C       -14.3453472275        2.3435061668        1.9846940766
 H       -17.1278441829       -0.2670311503        4.3713319588
 H       -16.9364206023       -0.5941723365        2.5579338538
 H       -17.1412213792        0.9677265099        3.2940485041
 H       -12.7927931307       -1.3450889604        3.6332360793
 H       -11.6408752089       -0.0789594240        3.4858190364
 H       -10.7521273565       -2.4613748230        2.7549045912
 H       -10.3614301445       -0.9444694020        1.9232984453
 H        -9.1711722942       -3.7786885095       -2.3783544610
 H        -8.3336055209       -4.5660014279       -0.9520505092
 H        -6.8302796319       -3.7426201119       -2.5369073366
 H        -6.5880858496       -2.3766229946       -1.2122260594
 H        -6.5444512292        2.1748038190       -4.8362715878
 H        -6.7510215852        2.8956991665       -3.1780709241
 H        -8.7464469979        1.5966864826       -5.0587058312
 H        -8.7158511408        3.2940407947       -4.5867858720
 H       -11.4192291926        5.5471001328       -2.0565739375
 H       -10.2677296273        5.2878002016       -3.2842086483
 H        -9.1063048750        6.7306263637       -1.9911331509
 H        -8.4655182397        5.1242261162       -1.6998477215
 H        -8.1019977415        9.7105216429        1.3777681884
 H        -9.6915050727        9.8716483265        1.7955770928
 H       -10.1371089679       11.8351158324        0.3335348068
 H        -8.8607059149       11.3344351768       -0.6887938451
 H        -7.0143457964       12.7925631641        3.6364186501
 H        -8.5044451293       12.2857033147        4.6285496635
 H        -7.8063628869       13.8168773072        4.8638345004
 H        -6.0981016577       14.3688779255        1.3530183237
 H        -6.8011038236       15.4376312472        2.4496445212
 H        -7.2340573774       15.4971666089        0.6802705637
 H        -9.6085813956       15.4899210498        1.3014135121
 H       -10.5211862362       14.2252762859        0.7970268094
 H        -9.3101308986       14.8644981284       -0.3176678453
 H        -8.6076982935        6.6059986810        2.5763709160
 H        -9.9929454846        7.5124629276        2.3895821752
 H        -8.5200910259        8.3624028257        2.4752569611
 H        -7.1133942214        7.5015569970       -0.9799190136
 H        -6.7057760891        6.5888049337        0.5385067710
 H        -6.8284578605        8.3079711765        0.4466328663
 H       -12.4262016534        3.5041905480       -4.3207414464
 H       -11.1585777206        2.3930054668       -5.2232625447
 H       -10.7885078737        4.0371669518       -4.6246356803
 H       -12.8286864927        1.3168362817       -3.2775182459
 H       -12.2966848057        2.0045876431       -1.6472429132
 H       -11.4905155171        0.6826747008       -2.1629792522
 H        -4.8953628332       -1.2333982447       -2.3575660983
 H        -4.5537541327       -0.9229012658       -4.0212715718
 H        -5.1859638433       -2.5142055666       -3.5208157290
 H        -6.6492515591       -1.8319019536       -5.4070960297
 H        -6.5722526062       -0.0335553067       -5.6024233527
 H        -8.0840064054       -0.8236384619       -5.2260566538
 H        -9.7816740200       -5.1629436033        0.1828207876
 H       -11.1996413519       -5.0805078479        1.0877712349
 H        -9.5302227579       -4.2427892380        1.6337385946
 H       -12.1164730669       -4.6411568565       -0.6767313435
 H       -11.1833633020       -4.0966968207       -2.0776466502
 H       -12.4583319007       -3.0502500030       -1.3950743066
 H       -15.2151999407       -1.0122778954        1.0961322953
 H       -14.9070866905        0.3797701673       -0.0511201950
 H       -16.3569788854        0.3507388541        0.9128613856
 H       -13.4339851803        2.8030868588        2.2942993970
 H       -15.1675049310        2.9010691358        2.4239070338
 H       -14.2750239659        2.5929454965        0.9127336582
 Na      -10.1584898338        0.6377355068        0.0990068869
