117

 C       -16.6379005021        0.2367889314        3.5911791052
 C       -15.1250486032        0.4288268043        3.4165361954
 O       -14.4500498090        0.1862517743        4.3564159675
 C       -14.4781294479        0.7354966645        2.0325574073
 C       -12.9659834730        0.3303381469        1.8899553604
 O       -12.2899892691        0.7212877886        0.9520492194
 C       -12.3215879398       -0.6596720427        2.8508434660
 C       -11.1986346675       -1.6715315541        2.2392255460
 C       -11.7653644905       -2.3426605739        0.8729574388
 O       -12.9263762317       -2.1184919750        0.5668867628
 C       -10.8705278508       -3.2861237724        0.0119785312
 C        -9.3767120740       -2.6411873525       -0.4334566292
 O        -8.8956997728       -1.5941964650        0.0002146545
 C        -8.5196764479       -3.6175872979       -1.4348842288
 C        -7.3662663655       -2.8314609944       -1.7935909061
 C        -7.7560225587       -1.6375849059       -2.7015354132
 O        -8.8947972740       -1.5523324225       -3.0853488583
 C        -6.5980931068       -0.7940973211       -3.5222343176
 C        -6.5208637556        0.7883649502       -3.0118273918
 O        -5.7936315812        0.9542695185       -2.0493887846
 C        -7.0050233055        1.9915557842       -3.7524924055
 C        -8.5439418002        2.2856477473       -4.0749786420
 C        -9.4681078728        2.0852169195       -2.9404561273
 O        -9.1555356960        1.3978215282       -1.9506379573
 C       -10.9142827419        2.6472252352       -2.9230243628
 C       -10.6971195372        3.6892619973       -1.8279401187
 O       -10.5843285590        3.2237317782       -0.6584100065
 C       -10.5642079609        5.1768134044       -2.2086488613
 C        -9.5046262985        6.0080342885       -1.5253638764
 C        -9.6912668589        6.3938553968       -0.0565982187
 O       -10.4828522211        5.7634629085        0.6576963899
 C        -8.7954410275        7.5434672410        0.5082877836
 C        -9.4326321864        8.8821956175       -0.1244857057
 O       -10.2011554157        8.9744072001       -1.0074754943
 C        -8.8901233964       10.1050783551        0.7722646115
 C        -9.1003258157       11.5642658348        0.1282121614
 C        -7.9502797420       12.4227793150        0.7981660403
 O        -6.7991297720       11.9884674283        0.9923251296
 C        -8.3633307985       13.8030966269        1.3860509532
 C        -8.8404043396       13.6053428763        2.8963886794
 O        -9.9051311255       14.0373416918        3.2408480919
 C        -7.8999243494       13.2082460795        3.9506969805
 C        -7.1205250998       14.6142649838        1.5507204783
 C        -9.4181568492       14.5504324926        0.5220029962
 C        -8.9403101473        7.5917050739        2.0258798757
 C        -7.3070563150        7.2593960879        0.2634807914
 C       -11.0672811647        3.0212466402       -4.4692309455
 C       -11.8038998598        1.4603393603       -2.4087850921
 C        -5.1629126859       -1.4278844100       -3.2686650122
 C        -6.9561861087       -0.9167998075       -5.0192621681
 C       -10.6048013843       -4.5836680317        0.7885795016
 C       -11.7150082443       -3.7635194186       -1.2638639800
 C       -15.2642265150        0.1297951513        0.8874053673
 C       -14.3038938913        2.2757808737        2.0544466239
 H       -16.9186544434        0.2197021267        4.6123801897
 H       -17.1092680699       -0.5327028322        2.9263654031
 H       -17.1596337520        1.1669662266        3.3579815018
 H       -13.0658451063       -1.3822208279        3.0673179144
 H       -12.0986925724       -0.1797932064        3.9049320824
 H       -11.1152054930       -2.5000228529        2.9061085155
 H       -10.1291902712       -1.2191651622        2.1132321413
 H        -9.2134378125       -3.9224243424       -2.2602390476
 H        -8.1700607696       -4.5423376278       -0.9381396213
 H        -6.7221018932       -3.4714297429       -2.4033911093
 H        -6.9285011625       -2.4965247657       -0.9400220224
 H        -6.6377693757        2.1168130305       -4.8401788644
 H        -6.8341541808        2.8566780995       -3.1652707382
 H        -8.8888568812        1.5701788943       -4.8645821309
 H        -8.6886769141        3.2963373513       -4.4770265302
 H       -11.5914993464        5.4079438036       -1.8514445916
 H       -10.7663579377        5.4061599688       -3.3170572307
 H        -9.3993687010        6.9853415329       -2.1132101433
 H        -8.6388238694        5.4428748945       -1.7693418779
 H        -7.8973886819        9.8805693846        1.0929747904
 H        -9.4295596426       10.1713455993        1.7134847211
 H       -10.0734133801       11.8389564926        0.2028568214
 H        -8.8707770613       11.6381185752       -0.9785868513
 H        -7.0312400587       12.7488376157        3.4834810688
 H        -8.4593588124       12.5603062771        4.6569628246
 H        -7.5463012900       14.0411175243        4.5590432152
 H        -6.2475950698       14.1583527768        2.0272342061
 H        -7.1130753590       15.5701118100        2.0829486243
 H        -6.8548427525       14.8388258932        0.4102995257
 H        -9.8684980577       15.4160858745        1.0291171822
 H       -10.3048652847       13.9169743878        0.1931526680
 H        -8.8257344045       14.8060320402       -0.3692719138
 H        -9.2424315360        6.6863018791        2.5590495341
 H        -9.8225946990        8.1741357362        2.2941072933
 H        -8.1730949012        8.0986254552        2.4577446374
 H        -7.0005455816        7.2401509121       -0.7654545019
 H        -6.9347834226        6.3730729227        0.8128852281
 H        -6.7703071766        8.1171195161        0.6314298705
 H       -12.0645578367        3.3636749777       -4.8782643584
 H       -10.6958633988        2.0913856726       -4.9246950307
 H       -10.4025001651        3.8299179138       -4.7983222599
 H       -12.1552352389        1.0867709092       -3.3529708302
 H       -12.4998025704        1.7611373790       -1.6716545135
 H       -11.1966879782        0.7350434967       -1.8739464869
 H        -4.6985880839       -1.1520488336       -2.2972939927
 H        -4.5126103116       -0.9697970805       -3.9896694380
 H        -5.1311415248       -2.5309521383       -3.3666087424
 H        -6.3248959531       -1.5600957536       -5.5099615658
 H        -7.0118436708        0.0986059715       -5.4312127592
 H        -8.0402864909       -1.2985493386       -5.0477600678
 H       -10.0347951057       -5.2663812094        0.1290004304
 H       -11.5111138055       -5.1506774388        0.9883161505
 H        -9.9362694809       -4.2946605537        1.6306817282
 H       -12.6052328210       -4.2893360668       -0.9440836161
 H       -11.0804571422       -4.5589615364       -1.7235802463
 H       -11.9408603686       -3.0591690205       -2.1214101248
 H       -15.4780873229       -0.9242617816        1.1308751211
 H       -14.7835694414        0.3331045619       -0.0685025141
 H       -16.1744665114        0.5884132366        0.7858177258
 H       -13.3234426633        2.6506979548        2.3696455592
 H       -15.0957128781        2.7435730056        2.7004989714
 H       -14.3565741645        2.7107146030        1.1289440890
 Na      -10.0992462142        0.6774296582        0.2075111535
