117

 C       -16.5746979681        0.5581208810        3.6374886838
 C       -15.0291724174        0.3253118815        3.4226065959
 O       -14.2980311024        0.1781038021        4.3984245337
 C       -14.4184459802        0.7409924384        2.0187843992
 C       -12.9554992813        0.2158383020        1.8044175095
 O       -12.2307491262        0.7777287584        0.9885153149
 C       -12.4773078491       -0.9157930338        2.7617549005
 C       -11.3757448697       -1.7808095294        2.1899826863
 C       -11.8416361099       -2.3488551510        0.8430334973
 O       -12.9543772678       -2.1260156721        0.4596930720
 C       -10.8684712581       -3.4107736575        0.0385154885
 C        -9.5301793125       -2.7711073857       -0.3214935822
 O        -9.1497706513       -1.7471721617        0.1507677114
 C        -8.5757649339       -3.4882534662       -1.2069106125
 C        -7.2776570860       -2.6350583277       -1.6723879186
 C        -7.6983938125       -1.6656829366       -2.8050490243
 O        -8.8467975027       -1.5073639571       -3.2115865704
 C        -6.5441919612       -0.7956903946       -3.4661447411
 C        -6.4821006261        0.6392179114       -2.8870610901
 O        -5.7189506375        0.8490372089       -1.9351456803
 C        -6.9165876588        1.8925905810       -3.6843638596
 C        -8.4305724630        2.1140620935       -3.9705343650
 C        -9.3677544144        1.8156801445       -2.7573005123
 O        -8.9568226598        1.2413943807       -1.7481344416
 C       -10.7436556211        2.4324901501       -2.9816023533
 C       -10.8579430548        3.7784470912       -1.7617188570
 O       -10.7134084575        3.2807004838       -0.6683454785
 C       -10.8860646297        5.3307548022       -2.1488585339
 C        -9.6583302222        6.1690945183       -1.6573858444
 C        -9.7348333603        6.4754935938       -0.1613326441
 O       -10.4456300710        5.7497875920        0.5859874527
 C        -8.8017048763        7.6550880890        0.5670081216
 C        -9.2427040954        8.8682373387       -0.1335177414
 O       -10.1422329639        8.8026850311       -1.0349650939
 C        -8.7745225804       10.2290069330        0.4750318991
 C        -8.9883104023       11.6322537786       -0.1342287844
 C        -8.0382388858       12.4083677391        0.7806096817
 O        -6.9042544947       12.0081576055        0.9122916657
 C        -8.2899351593       13.8929726235        1.3068635788
 C        -8.8512903361       13.6633594862        2.9602190975
 O       -10.0430193516       13.9250494959        3.3156994146
 C        -7.6682497094       13.1491993761        3.8542862759
 C        -6.9482269063       14.5922705399        1.4823141105
 C        -9.3171945788       14.4852353684        0.4272451056
 C        -9.0552656774        7.5853648800        2.1013330744
 C        -7.3848078709        7.1510847018        0.2891639628
 C       -11.2197139278        3.0084887118       -4.3950489663
 C       -11.8053828558        1.4776683192       -2.5265856005
 C        -5.1993268171       -1.3431400718       -3.2246424109
 C        -6.9207394095       -0.8551445475       -4.9830670664
 C       -10.7976251765       -4.6181224280        0.9091137063
 C       -11.6359418308       -3.5408377196       -1.3693865746
 C       -15.2030268412        0.3312337205        0.7974330384
 C       -14.4315245485        2.3683811579        2.0476865515
 H       -16.8325574424        0.7796143808        4.6611774650
 H       -17.1246263433       -0.3154199787        3.2636395776
 H       -17.0728454462        1.4212185448        3.1835763416
 H       -13.2430164069       -1.5365999324        3.2458077287
 H       -11.9689288742       -0.3394727418        3.6235511161
 H       -10.9198839171       -2.4923052913        2.8595754720
 H       -10.6014071946       -0.9987172016        1.9507522602
 H        -9.1534826013       -3.8920394974       -1.9400131776
 H        -8.2196737648       -4.2895094090       -0.6246871676
 H        -6.6619539128       -3.3343168957       -2.1719509615
 H        -6.8263122467       -2.1014451195       -0.8699087310
 H        -6.4355396888        1.8738805316       -4.7108913621
 H        -6.7333201161        2.8025858387       -3.1590430223
 H        -8.7758449586        1.3911523249       -4.7500155292
 H        -8.6451694424        3.1272264669       -4.3378146895
 H       -11.8960592428        5.7991020548       -1.9031037636
 H       -11.0410650130        5.3740258681       -3.2231183655
 H        -9.6963042953        7.1068190157       -2.2116575929
 H        -8.7781452468        5.6196785266       -2.0090159155
 H        -7.6719335457       10.0173621969        0.5999880103
 H        -9.0735527362       10.4536436652        1.5473608799
 H       -10.0403155291       11.8407560848       -0.0104583961
 H        -8.7223280760       11.8431620160       -1.1543435457
 H        -7.0437699784       12.5180506424        3.3023602343
 H        -8.1034833951       12.7842618573        4.8078008196
 H        -7.0149695750       14.0054689922        4.1958175308
 H        -6.4047175330       14.6081984255        2.4639441064
 H        -7.1241947366       15.6321044299        1.4769935039
 H        -6.1438529560       14.4705903442        0.6603685458
 H        -9.9148031768       15.3388640730        0.8521728083
 H       -10.0248815807       13.6833456109        0.0424878029
 H        -8.6945028333       14.8002171823       -0.5003450228
 H        -9.5531613473        6.6924759722        2.4221800573
 H        -9.7838019054        8.2594325203        2.5325746939
 H        -8.0940682916        7.8615353058        2.7021968539
 H        -7.2184584490        7.0690086361       -0.7867013962
 H        -7.2287697810        6.2326705931        0.7612189756
 H        -6.5573823115        7.9067996934        0.5638297205
 H       -12.2000701114        3.4203293776       -4.2130321395
 H       -11.2160167651        2.2121463558       -5.0459951107
 H       -10.7070938616        3.8798294997       -4.8878596323
 H       -11.9153795402        1.0098222229       -3.4376852026
 H       -12.7986529520        2.0279292604       -2.2367159919
 H       -11.5791476576        0.8976675047       -1.6260819078
 H        -4.8523371230       -1.2679575796       -2.1431678411
 H        -4.4312244377       -0.7235241666       -3.7608390523
 H        -5.1834597612       -2.3906323153       -3.5073493085
 H        -6.0118539779       -1.3652198475       -5.5321203785
 H        -7.1585046662        0.1434028775       -5.3854800237
 H        -7.7904808404       -1.4531590340       -5.1263206390
 H       -10.4030418652       -5.5601381970        0.4281434246
 H       -11.8423725816       -4.8765121894        1.1311619395
 H       -10.2616639587       -4.3071300183        1.7644413654
 H       -12.7513191483       -3.2536801316       -1.2959798710
 H       -11.6528462831       -4.5694482027       -1.6592930375
 H       -11.1455505193       -3.0535342559       -2.1530049750
 H       -15.6409973132       -0.6599476489        0.9270693663
 H       -14.6815706078        0.4944925951       -0.1066525872
 H       -16.0782804162        0.9611282904        0.6601743989
 H       -13.6334832756        2.8946972022        2.5917117848
 H       -15.3720519617        2.6251129799        2.4865393002
 H       -14.3850893371        2.8456206927        1.0401449345
 Na      -10.0356896047        0.7812171893        0.2073825246
