117

 C       -16.4926164684        0.9360519953        3.7520230949
 C       -15.0444019939        0.5864716021        3.4425585975
 O       -14.3000982035        0.2294359427        4.2980838818
 C       -14.3087256147        1.0132363458        2.0612854736
 C       -12.9599020386        0.2171107165        1.8742612074
 O       -12.0748669517        0.7559334897        1.2073275225
 C       -12.8140863954       -1.0147735485        2.7462047498
 C       -11.6966682668       -1.9176497204        2.1240131241
 C       -12.0547384223       -2.4124495045        0.6950601807
 O       -13.0931037112       -2.0185163733        0.1735108615
 C       -11.0424529150       -3.3282849192       -0.1470453947
 C        -9.6367108060       -2.6444965154       -0.1796211011
 O        -9.4409742241       -1.5012739124        0.3187107975
 C        -8.4012033648       -3.2154376341       -0.7413535520
 C        -7.4403566364       -2.2518067954       -1.2887730131
 C        -7.6773988466       -1.6329444964       -2.7496722129
 O        -8.7627420783       -1.5199686885       -3.2302425531
 C        -6.3118961264       -0.8618953604       -3.4568449545
 C        -6.2616713855        0.4903565554       -2.7268757162
 O        -5.9340532004        0.5059733976       -1.5767103894
 C        -6.8053781149        1.8644372516       -3.4207480420
 C        -8.2864525226        1.7875862020       -3.9240977886
 C        -9.3367230202        1.8260683449       -2.7684335013
 O        -8.9409214752        1.2117479543       -1.7559080774
 C       -10.7998614694        2.4896321513       -2.7787394255
 C       -10.9676919414        3.5138854919       -1.5050144999
 O       -10.7682565343        3.1173069297       -0.3523701368
 C       -11.2405260527        5.1050017947       -2.0753202984
 C       -10.0518162471        6.0306685824       -1.6265469997
 C        -9.9402659250        6.2383148793       -0.1257352068
 O       -10.6920228020        5.6175321647        0.6165103996
 C        -9.0236744295        7.4215489670        0.3372233683
 C        -9.2304882618        8.9145326487       -0.3206312166
 O        -9.9817748364        9.1044915042       -1.2056406887
 C        -8.2840524615        9.9229187092        0.2019973498
 C        -8.7989553598       11.4626137244       -0.0754919736
 C        -7.8060679271       12.5725606453        0.6264886870
 O        -6.6760202529       12.1380792384        1.0007504756
 C        -8.2050979664       13.9567427314        1.0890964453
 C        -8.6454060856       13.4903299789        2.6957233873
 O        -9.7912374771       13.6721808110        2.8872972158
 C        -7.6735033269       13.0363927058        3.7441760280
 C        -6.9058625346       14.8506372606        1.1060302875
 C        -9.3915486072       14.8439778367        0.6071753907
 C        -9.2690640593        7.5303561288        1.7693726512
 C        -7.5240444016        7.1452347813        0.1598921433
 C       -10.9702373721        3.0523938037       -4.1833169407
 C       -11.8336445527        1.3821179968       -2.3106968177
 C        -5.0580799551       -1.6862707706       -3.3176326738
 C        -6.4782284227       -0.7529289378       -4.9977597560
 C       -11.1698175608       -4.7331020260        0.6227561567
 C       -11.5485188101       -3.6180237850       -1.5220898875
 C       -15.1840027611        0.4259879859        0.9561648054
 C       -14.1149153058        2.4961654415        1.9169448185
 H       -16.4910720309        1.6335875215        4.6024466026
 H       -17.2161089710        0.1266027124        3.9697870105
 H       -16.9565381215        1.5897740168        3.0042185753
 H       -13.7179212127       -1.5709474952        2.7367261741
 H       -12.5930397709       -0.8215648928        3.7908204539
 H       -11.4416253607       -2.7707926793        2.7729402883
 H       -10.7752149495       -1.3220802234        2.0367992860
 H        -8.8716426919       -4.0600999811       -1.4070187012
 H        -7.8958049546       -3.6237044577        0.1995040965
 H        -6.5285519695       -2.9428271582       -1.5141217534
 H        -7.1760717559       -1.4146432460       -0.5661977603
 H        -6.1545685587        1.9886985208       -4.3103473321
 H        -6.7187037033        2.8252962371       -2.8698808019
 H        -8.4159838571        0.8005613398       -4.4010111568
 H        -8.5925007604        2.6323504631       -4.5884794808
 H       -12.1063421229        5.6687800389       -1.9866994820
 H       -11.3669965229        4.9365426024       -3.1764643829
 H       -10.3518027302        6.9561583421       -2.1469240567
 H        -9.0739568164        5.7241760231       -2.0237832350
 H        -7.2305065895        9.8034673390       -0.0786124547
 H        -8.2949132075        9.8550562248        1.2719045909
 H        -9.8702786408       11.6507531421        0.1266509959
 H        -8.6247793769       11.4854176498       -1.2204937464
 H        -7.1674743421       12.1222590294        3.3402870265
 H        -8.2215699228       13.0689828122        4.6567473021
 H        -6.8518515191       13.6915473804        3.8087168428
 H        -6.8442921475       15.5009973033        1.9260071491
 H        -6.9860655583       15.6495033666        0.2814560517
 H        -5.9300229413       14.3512923566        1.0798426865
 H        -9.0104813728       15.7437981544        1.1131533311
 H       -10.3434525144       14.5203155557        1.0311141246
 H        -9.5240449595       15.0208509375       -0.4150039279
 H        -9.5089695220        6.5282726886        2.2037022953
 H       -10.2119411243        7.9590114704        2.1482633493
 H        -8.5121515449        7.9811114378        2.2502128576
 H        -7.0233498828        7.2235413657       -0.8153767050
 H        -7.3383814007        6.1032773347        0.6204075025
 H        -7.0327183775        7.8649685566        0.7235125473
 H       -11.8397052910        3.6844637716       -4.2628644619
 H       -10.9599025772        2.1905314615       -4.8940910302
 H       -10.2466775103        3.7443067335       -4.4019634203
 H       -11.5018780898        0.3510568581       -2.6616064231
 H       -12.6827141734        1.5874288168       -2.8744539782
 H       -12.1362778366        1.7211987990       -1.3360531548
 H        -4.8894015985       -1.9042189581       -2.2802311745
 H        -4.1665837701       -1.1376078744       -3.5567746416
 H        -5.1789162841       -2.6689574371       -3.8293382338
 H        -5.5554130897       -0.8917978490       -5.3261336331
 H        -6.8284361975        0.1943007433       -5.4000148414
 H        -7.1680242200       -1.5521460537       -5.4175452276
 H       -10.8349096780       -5.4772258845       -0.0247760274
 H       -12.2265388769       -4.9588035164        0.7569059623
 H       -10.7370336127       -4.6698489096        1.6707721315
 H       -11.8090429411       -2.7521094755       -1.9932781084
 H       -12.4529304134       -4.2151411273       -1.5214990844
 H       -10.7940981652       -4.1763742338       -2.1416512191
 H       -15.2171368655       -0.6912309820        0.9978229152
 H       -15.0459599115        0.8492702959       -0.1048470474
 H       -16.2342661683        0.6533242545        1.1609613696
 H       -14.1529832437        2.8997206152        2.9633156429
 H       -15.0066062722        2.9624715701        1.3937079440
 H       -13.2377649763        2.8777654499        1.4932734197
 Na      -10.1059673158        1.0494549795        0.1706078415
