117

 C       -16.4751624228        1.1636978871        3.7375626729
 C       -15.0134503238        0.9269788715        3.5396901157
 O       -14.4626440611        0.3262607041        4.4411165974
 C       -14.3321363236        1.0975409915        2.1269228448
 C       -12.9739195047        0.2990740895        1.9944841679
 O       -12.0404729250        0.7205898735        1.3748332287
 C       -12.9021870342       -1.0527367883        2.6745303009
 C       -11.8538376017       -2.1246844824        2.0116939905
 C       -12.1773033774       -2.3752686897        0.5480606975
 O       -13.1548214228       -1.9623330908       -0.0005545342
 C       -11.1303032252       -3.2191243500       -0.2214118866
 C        -9.6944746258       -2.4459950438       -0.1267368188
 O        -9.6701941673       -1.3046679516        0.2834201067
 C        -8.2231287567       -3.1214630678       -0.6747983088
 C        -7.3154084707       -2.0963837232       -1.2163028273
 C        -7.5037810774       -1.5622239526       -2.7579605836
 O        -8.6198189939       -1.5547347593       -3.2475567058
 C        -6.3014145400       -0.9614582689       -3.4181454949
 C        -6.4092759121        0.3753345847       -2.6285058485
 O        -6.0231181525        0.4207014667       -1.4512414217
 C        -6.9156873815        1.6287229183       -3.2511174557
 C        -8.3785062719        1.8136317083       -3.8325633670
 C        -9.2897748675        1.8159117938       -2.6142268637
 O        -9.0092896724        1.1747645036       -1.5998202388
 C       -10.6908343798        2.5106170850       -2.7191307051
 C       -10.7736139556        3.4781436143       -1.5998487649
 O       -10.7840421133        3.1431285405       -0.3950215841
 C       -11.2545154399        4.8652936910       -1.8679803505
 C       -10.2382629107        5.9020875331       -1.6759048460
 C       -10.1160685980        6.3640489577       -0.2072320183
 O       -10.7431890856        5.6437211790        0.6446135327
 C        -9.0992853343        7.4465473077        0.3403984948
 C        -9.2145734946        8.9012770768       -0.4511842374
 O        -9.9925697313        9.1945691148       -1.3511441617
 C        -8.0528499206        9.9065861547        0.1451970290
 C        -8.7060127012       11.4755274883        0.0939376040
 C        -7.6694843382       12.4710191386        0.5949588535
 O        -6.5433210459       12.2048387750        0.9426957258
 C        -8.1589789542       14.0570134249        1.1491773121
 C        -8.5615340042       13.5788059534        2.4927644617
 O        -9.8039053370       13.4674011648        2.7733562267
 C        -7.5370313483       13.0381894877        3.5152022379
 C        -6.8996686545       14.8991212629        1.0339256122
 C        -9.3832810911       14.7680091947        0.5178480561
 C        -9.4039460217        7.6120876672        1.8605542546
 C        -7.6191963644        6.9479531100        0.0077917597
 C       -10.8953784534        2.9553792302       -4.1894080448
 C       -11.6512795672        1.2619671541       -2.3417901335
 C        -5.0268606562       -1.8930392412       -3.1864710812
 C        -6.3911087695       -0.8100817836       -4.9879918850
 C       -11.0843493301       -4.7055409710        0.4591709726
 C       -11.6197317323       -3.5873105149       -1.6172260098
 C       -15.2301228341        0.3430155736        0.9705182600
 C       -13.9473854457        2.6170505068        1.8922495642
 H       -16.6873808733        1.8327701952        4.5722350057
 H       -16.9896938986        0.1918888700        4.0258894939
 H       -17.0387622269        1.6004379796        2.8935927316
 H       -13.8232799402       -1.5187994801        2.7704777500
 H       -12.5576366530       -0.9044283162        3.7873528956
 H       -11.8790197175       -3.0635817098        2.5109491070
 H       -10.7359609676       -1.7835594543        2.0916089685
 H        -8.5815608985       -3.8838182406       -1.3395924379
 H        -7.8669901568       -3.5822011604        0.3470522544
 H        -6.2480010098       -2.4399485163       -1.0387601971
 H        -7.4998764543       -1.1892608435       -0.7007677865
 H        -6.0451787485        2.0174191524       -3.9389252591
 H        -6.9036759507        2.4000211690       -2.4690629827
 H        -8.7290489620        0.8815777360       -4.3153523676
 H        -8.5982760479        2.6944412312       -4.4076775536
 H       -12.0547681099        5.1022132711       -1.0862711923
 H       -11.9138828454        4.8671109629       -2.7421702486
 H       -10.6463371532        6.6285980232       -2.4652081572
 H        -9.2608812879        5.5741262724       -1.9333623416
 H        -7.1434333286        9.8971825422       -0.3448047505
 H        -7.8445837371        9.6887244137        1.1587399478
 H        -9.4781597219       11.6856957402        0.7678626244
 H        -9.0881899260       11.5620950166       -0.9624006713
 H        -7.2332796344       12.1363736261        3.0943576115
 H        -8.0499576333       13.0202245557        4.4916419006
 H        -6.5916089459       13.5730671386        3.5984014075
 H        -7.0190205207       15.8841638292        1.5663092192
 H        -6.5409174450       15.2173965071        0.0715789194
 H        -6.0606451285       14.4043504895        1.7039651422
 H        -9.2767892343       15.7827398082        0.7569492389
 H       -10.1683950336       14.2436352454        1.0054481894
 H        -9.5959526436       14.6620316067       -0.5178200500
 H        -9.1812059136        6.6911588086        2.3554986616
 H       -10.3935528660        7.6130888392        2.1176914331
 H        -8.8850819546        8.3744032789        2.4359262072
 H        -7.3155274213        7.0083021775       -1.0262781522
 H        -7.5803801578        5.9277962066        0.3248683674
 H        -6.8713155064        7.5783970064        0.5516597420
 H       -11.9483725783        3.3125189362       -4.3753291093
 H       -10.5811693125        2.2231780206       -4.8984331115
 H       -10.3964548205        3.9703058174       -4.2642408698
 H       -11.1829054179        0.3756004467       -2.4901247931
 H       -12.3893389693        1.2752587868       -3.1599930941
 H       -12.1790069968        1.5257739345       -1.4458732168
 H        -4.6301585417       -1.8980943665       -2.1655057299
 H        -4.1890378818       -1.4593612191       -3.6859284881
 H        -5.1802302978       -2.9018950097       -3.4975324900
 H        -5.3793803072       -0.7085156117       -5.4545896377
 H        -6.9455437853        0.0526965231       -5.2784077845
 H        -6.9908033550       -1.6177222226       -5.3617145478
 H       -10.4149062920       -5.2185129354       -0.2724703851
 H       -12.0516493642       -5.2029673840        0.4333000973
 H       -10.7917686903       -4.7362463815        1.4935741841
 H       -11.2938505224       -2.7159457985       -2.3032758704
 H       -12.6989378071       -3.6447076983       -1.7220932433
 H       -11.1863902771       -4.4896870402       -2.0122959467
 H       -15.1583884295       -0.7783601578        0.8405013194
 H       -15.1055676877        0.9000174605        0.0139697055
 H       -16.2488865618        0.4898750889        1.1836982013
 H       -14.1051095612        3.2439946297        2.8195954902
 H       -14.3710313332        3.1500771308        1.0183142683
 H       -12.9036066614        2.6664347613        1.7112060892
 Na      -10.1835719950        1.0480091950        0.2226045720
