117

 C       -16.5273763382        1.4811292193        3.6489212911
 C       -15.0484346756        0.9493982146        3.5856299642
 O       -14.4353354869        0.5130116278        4.5680505711
 C       -14.2868505608        1.0842762538        2.1954167626
 C       -12.9717108921        0.2275183168        2.1559371594
 O       -12.0351086101        0.7377961241        1.5411110059
 C       -13.0038324678       -1.1859482801        2.6697451174
 C       -12.0828841343       -2.2054592846        1.9740441457
 C       -12.2607763019       -2.3207487725        0.4791048963
 O       -13.1937508100       -1.9139641531       -0.1651856807
 C       -11.0224305979       -3.2125306495       -0.3483334510
 C        -9.8197162281       -2.3906416042       -0.2268346577
 O        -9.8596994030       -1.2572204688        0.1332475602
 C        -8.4229256893       -2.9940036129       -0.6705018438
 C        -7.3917520636       -1.9495872388       -1.1363474407
 C        -7.5017738243       -1.7051497882       -2.6365826301
 O        -8.5608955215       -1.6806820790       -3.2492508586
 C        -6.2704061302       -1.0885331463       -3.3582033494
 C        -6.2603420053        0.3771401275       -2.5588598514
 O        -6.0227484790        0.3103738284       -1.3799542135
 C        -6.7734320498        1.6269512646       -3.2047755792
 C        -8.2521370486        1.7452435704       -3.6199277096
 C        -9.2097606907        1.5905282020       -2.5039564861
 O        -8.8841249521        1.1565152885       -1.4740990638
 C       -10.6567193727        2.2909953199       -2.7386736713
 C       -10.9470429626        3.4315701661       -1.5286116334
 O       -10.6105902202        3.1035592051       -0.4457902904
 C       -11.4484502437        4.9410180361       -1.7762963918
 C       -10.3342913113        6.0809600689       -1.7359033619
 C       -10.1727799990        6.4312080188       -0.2197754986
 O       -10.7708115434        5.8484790558        0.6275066251
 C        -9.1465153129        7.5049142028        0.2966455799
 C        -9.1233317402        8.9449424301       -0.3422685345
 O        -9.8496298585        9.1165458916       -1.3128044482
 C        -8.1464858241       10.0606885695       -0.0204842610
 C        -8.6832042911       11.4792495392        0.2243210883
 C        -7.5922471621       12.4550988254        0.6569944044
 O        -6.4405721460       12.2346648833        0.7242269729
 C        -8.0966884683       13.9448748339        1.0899989712
 C        -8.6088248640       13.5438833020        2.5328480632
 O        -9.7397330904       13.2158195647        2.8359554544
 C        -7.4021509205       13.0944645250        3.4615416790
 C        -6.8995704489       14.9393082990        1.0145330688
 C        -9.2662819904       14.5712038591        0.1040684923
 C        -9.4188064941        7.7301220706        1.7826524743
 C        -7.8893620154        6.7796784271       -0.0470534519
 C       -10.9463052045        2.8972984162       -4.0861032450
 C       -11.6884106406        1.0646303658       -2.5529943874
 C        -4.9361919636       -1.8950083567       -2.9882716074
 C        -6.4270015484       -0.8990244585       -4.8996762469
 C       -10.8234295579       -4.5933666339        0.4426638464
 C       -11.5403635415       -3.3337650435       -1.8442676557
 C       -15.1557611787        0.5516532388        1.0966078827
 C       -14.0160156043        2.5891707999        1.8299341662
 H       -16.7541698018        2.2147006657        4.4849318654
 H       -17.2520296286        0.6932995174        3.8686748160
 H       -16.8609654963        1.9645521893        2.6970540426
 H       -14.0744458586       -1.6360279708        2.7669585631
 H       -12.6348232249       -1.2006323397        3.7066114100
 H       -12.3368602652       -3.2175573140        2.3608494007
 H       -11.0376857660       -2.0780406425        2.2388890349
 H        -8.6821131177       -3.6669706143       -1.4233744413
 H        -8.2274648111       -3.5169720415        0.2310027352
 H        -6.4404329547       -2.2477653148       -0.8904731883
 H        -7.5759122701       -0.9325441828       -0.8464015482
 H        -6.1996870222        1.9200931167       -4.1155121257
 H        -6.5409956408        2.5136506518       -2.5048032973
 H        -8.4909897136        0.9329699096       -4.3079681911
 H        -8.4900368346        2.7019436377       -4.0453825434
 H       -12.2851524604        5.2233430855       -1.0096816899
 H       -12.0387730424        4.8728686698       -2.6585443489
 H       -10.6897028458        6.8930366494       -2.3758511696
 H        -9.4492082163        5.6184194091       -2.2097350967
 H        -7.6489170936       10.1498315520       -0.9696698646
 H        -7.3809875560        9.8450083030        0.7095090790
 H        -9.4278257673       11.5636575163        1.0254961747
 H        -9.1241818957       11.7333462170       -0.6573921856
 H        -7.1224825845       12.1600214896        3.0412059661
 H        -7.6600779449       13.1190689395        4.5149056873
 H        -6.4564868367       13.6516446469        3.3012437593
 H        -7.2231006227       16.0705684812        1.1242527502
 H        -6.2154567257       14.9473069683        0.1321607180
 H        -6.3298238428       14.8634765535        1.9235411242
 H        -9.2777533222       15.6610619576        0.1988851021
 H       -10.0864805274       13.9331202754        0.2685487208
 H        -9.0900619109       14.3791747289       -0.9639040488
 H        -8.8966320651        7.0431900637        2.4001977593
 H       -10.4089168301        7.5332185552        2.0999207580
 H        -9.0702042836        8.7113909839        2.2363922989
 H        -7.7682152072        6.7689372421       -1.1259827049
 H        -7.9838332377        5.7891209083        0.2599453954
 H        -6.9604041806        7.2850306761        0.3442288674
 H       -12.0315984488        3.1422689644       -4.1007871141
 H       -10.7218659883        2.3236481625       -5.0003835902
 H       -10.5610306791        3.9831691268       -4.0598066840
 H       -11.2364401311        0.0684439791       -2.4913413973
 H       -12.3320968788        0.9905534991       -3.4537397288
 H       -12.2787655273        1.3117634282       -1.6892173625
 H        -4.5000055418       -1.6103938809       -2.0353067487
 H        -4.0864167744       -1.7040961697       -3.6685806349
 H        -5.0350675667       -2.9723922808       -2.9906482932
 H        -5.5780354535       -0.3557921943       -5.4836480972
 H        -7.3183721132       -0.2495290217       -4.9846718431
 H        -6.7892782757       -1.7724076344       -5.3537553386
 H        -9.9021649258       -5.0567198411        0.0046354858
 H       -11.6958456941       -5.2663602215        0.3784635416
 H       -10.7822688045       -4.4155892471        1.4832746795
 H       -10.8907389899       -2.6336147612       -2.4785734469
 H       -12.5796730807       -2.9304963538       -1.9550528443
 H       -11.5423828551       -4.3108006564       -2.3095152597
 H       -15.0972741735       -0.5195492608        0.9451893012
 H       -14.9462376701        0.9978513802        0.1797127803
 H       -16.2435362515        0.7365811923        1.2837621819
 H       -14.4101073105        3.3207212864        2.5139957581
 H       -14.2336813746        2.8349441616        0.8326298578
 H       -12.8626702343        2.7066995637        1.7798991193
 Na      -10.2558514767        0.9557030137        0.3514348370
