117

 C       -16.3962554089        2.1315445334        3.7204306964
 C       -15.1488611126        1.3033529798        3.6062474187
 O       -14.5470645047        0.8649175201        4.5976062200
 C       -14.3849607599        1.1063780688        2.2372402322
 C       -13.2170633993        0.1275338086        2.3997624106
 O       -12.0624429010        0.5056908816        2.3991269619
 C       -13.5471260054       -1.3849244097        2.3533772105
 C       -12.4821313561       -2.2905592364        1.7595596529
 C       -12.4413453379       -2.2415010800        0.2606815240
 O       -13.2786186951       -1.6667296643       -0.4010385573
 C       -11.2707803892       -3.1166882569       -0.4616621595
 C        -9.9880264102       -2.2847334861       -0.4446209714
 O       -10.0084353780       -1.1489771598       -0.1388200832
 C        -8.5520789496       -2.9113971638       -0.4618649134
 C        -7.4532633536       -2.0469982762       -0.8826503058
 C        -7.4433771706       -1.8028701920       -2.4661434410
 O        -8.3928878774       -2.2195111446       -3.0844882943
 C        -6.1497000643       -1.0092132584       -3.0350509382
 C        -6.1206810085        0.4289072213       -2.4869219764
 O        -5.5363439053        0.6418429992       -1.4272438542
 C        -6.6276238250        1.6946919736       -3.1295866907
 C        -8.0728631773        1.8059344299       -3.6503136463
 C        -8.9462414413        1.7164670072       -2.3715304883
 O        -8.6483049313        1.2032181698       -1.3488149905
 C       -10.3767436279        2.3380449987       -2.6107778507
 C       -10.7638167686        3.4355579969       -1.4909171600
 O       -10.5700071075        3.0616180306       -0.3914729280
 C       -11.4236155138        4.7829363040       -1.8298434721
 C       -10.6666321941        6.0440910307       -1.4678072032
 C       -10.4583533431        6.5461148871       -0.0367120535
 O       -11.3748089625        6.4190831132        0.7546264539
 C        -9.2004609495        7.4622887470        0.2196046293
 C        -9.0820270734        8.7781137259       -0.7362674449
 O        -9.9335478295        8.9841439617       -1.5749446293
 C        -7.8545659543        9.6380646184       -0.4393572267
 C        -8.3796976561       10.9925573878        0.3296321990
 C        -7.3616320692       12.0880446979        0.2912867648
 O        -6.2398206120       12.0780526641       -0.2283734770
 C        -7.9382189477       13.5851768598        0.9337467468
 C        -8.4444161678       13.3135844591        2.3601306109
 O        -9.6459605132       13.1167904351        2.5035337063
 C        -7.4890133823       13.5269200905        3.5727772489
 C        -6.8768305601       14.7260918686        0.8120086480
 C        -9.2611942770       14.1064691973        0.1974303236
 C        -9.3028525358        7.8980174656        1.6579756376
 C        -7.8795705260        6.6930554876       -0.1018761495
 C       -10.6569225892        2.7518225492       -4.1969485403
 C       -11.4136688603        1.2558562674       -2.1374123971
 C        -4.9898526310       -1.8909792802       -2.5077594452
 C        -6.3277508142       -1.0787627305       -4.5932231764
 C       -11.2577952123       -4.5090037653        0.0287000555
 C       -11.7056887898       -3.2314235610       -1.9378290555
 C       -15.4547109600        0.7020319305        1.2366573904
 C       -13.7080268644        2.4816694350        1.7975172780
 H       -16.3930531591        2.4364632854        4.7563834221
 H       -17.3912614243        1.6803697309        3.7889315114
 H       -16.3984515604        2.9262574697        2.9946153480
 H       -14.4247962975       -1.5820069736        1.7249070603
 H       -13.7820122263       -1.7618116251        3.3731037095
 H       -12.5793117115       -3.3166931050        1.9875220452
 H       -11.4289953326       -1.9950075928        2.1311106437
 H        -8.7401823082       -3.8760711999       -0.9693560589
 H        -8.4081083414       -3.1821983372        0.6839199607
 H        -6.5930052395       -2.5877576302       -0.4421701556
 H        -7.5485007698       -0.9816906687       -0.5015961677
 H        -5.9764678519        2.1979034572       -3.9136023195
 H        -6.4105289437        2.4827468666       -2.4460419916
 H        -8.4200663426        1.0719462111       -4.4232310085
 H        -8.2566207646        2.8391613175       -3.8884809968
 H       -12.4093678178        4.6283142685       -1.3946530118
 H       -11.6556264996        4.6644148532       -2.8297421104
 H       -11.2361614915        6.8911871448       -1.9765655645
 H        -9.7384598815        5.7787364507       -1.9810366132
 H        -7.3648789103        9.8786491417       -1.3635392299
 H        -7.1198117190        9.2598919376        0.2786185552
 H        -8.4903623072       10.6536676480        1.3730919519
 H        -9.3341931556       11.3947977078       -0.1125872944
 H        -7.0623505965       12.6252466948        3.8980280316
 H        -8.1584015462       14.0175260852        4.3162538794
 H        -6.6744958371       14.2505959642        3.3193959887
 H        -7.3293618654       15.6355344159        0.2799059785
 H        -6.1278923112       14.3440484712        0.1207964709
 H        -6.4802482111       15.1756538654        1.7343491189
 H        -9.4367130619       15.1141990501        0.4320027924
 H        -9.9154356997       13.3318123174        0.5180368375
 H        -9.2619446589       14.0002586278       -0.8800213502
 H        -9.0025055358        7.2679458518        2.4196123201
 H       -10.2848929683        8.2290090280        1.8061488347
 H        -8.6357549442        8.7668332187        1.9574271733
 H        -7.9213578359        6.4498578192       -1.1904872992
 H        -7.7772174653        5.7910927622        0.4596646107
 H        -6.9735219995        7.3515601780        0.2098621683
 H       -11.6853087825        2.7305603130       -4.5182432666
 H       -10.3438995150        1.9514635459       -4.7606516299
 H       -10.0098478999        3.6249731168       -4.5150099627
 H       -10.8053637832        0.4955440685       -1.7588336731
 H       -11.9469571318        0.8361756245       -3.0437914336
 H       -12.0374634883        1.4591696830       -1.2651426364
 H        -4.7314004757       -1.8707177001       -1.4176329523
 H        -4.0865261523       -1.6197987861       -3.0603147132
 H        -5.0298859012       -2.9004428543       -2.8482159442
 H        -6.1486987042       -0.0393422077       -5.0611840839
 H        -7.3048505792       -1.3177862707       -4.8765038540
 H        -5.6974990380       -1.7686768085       -4.9949606712
 H       -11.0117781448       -5.2417805295       -0.7895168644
 H       -12.2190997122       -4.6277471870        0.4818730882
 H       -10.6249952179       -4.6896871475        0.8516179222
 H       -10.9530590470       -3.7974602816       -2.5627764605
 H       -11.9702581414       -2.2982186809       -2.3435973112
 H       -12.5714607027       -3.7643422428       -1.9685687593
 H       -16.4666225127        0.3077838139        1.5052720835
 H       -15.1125596459       -0.1540082634        0.6293400803
 H       -15.5721919190        1.5424309996        0.5449164309
 H       -14.4146382440        3.2128435866        1.4105891357
 H       -12.8296396144        2.2974988055        1.1889534510
 H       -13.1641356611        2.9036374365        2.6867888185
 Na      -10.3463908025        1.2239642704        0.7029646661
