117

 C       -16.2001811420        2.4414108124        3.7381139474
 C       -15.0017982378        1.4172783577        3.6398782429
 O       -14.5647823475        0.9370320875        4.6388532499
 C       -14.3289569274        1.2992297625        2.2287616877
 C       -13.3831302641        0.0064255238        2.3086725834
 O       -12.2065646195        0.2488099236        2.6318437284
 C       -13.8034087665       -1.4231342243        2.2272510006
 C       -12.6591676836       -2.2760870171        1.6316001333
 C       -12.6347160012       -2.1870944744        0.0881084181
 O       -13.3229596239       -1.3264434571       -0.3938646828
 C       -11.4947469802       -3.0352249811       -0.5974927331
 C       -10.1189678490       -2.3791908649       -0.3269120382
 O       -10.1950481452       -1.1295661156       -0.2214462930
 C        -8.7755319919       -3.0416138416       -0.2549796388
 C        -7.4901810388       -2.0115146379       -0.6379291098
 C        -7.3671132738       -1.8910200842       -2.2267538510
 O        -8.2414241720       -2.3127154148       -2.9491272246
 C        -6.1095049067       -0.9389567936       -2.8364226792
 C        -5.8967328542        0.4890595936       -2.2501164325
 O        -5.2243893777        0.6338534945       -1.2346115463
 C        -6.3851290501        1.6048692026       -3.1351713168
 C        -7.8475990387        1.7030960393       -3.5513488771
 C        -8.9399468048        1.7541304705       -2.3266105046
 O        -8.5698233576        1.4780378476       -1.1582247121
 C       -10.4526947322        2.4159435875       -2.5011066231
 C       -10.7141758211        3.5492956358       -1.3744144564
 O       -10.3955020975        3.4787228685       -0.1481025757
 C       -11.5020721394        4.8552684623       -1.7914792642
 C       -10.5326553324        6.1028078537       -1.6262539437
 C       -10.4947401385        6.6580100895       -0.2847841947
 O       -11.4951028916        6.6447630105        0.4477390632
 C        -9.1933524950        7.3928322980        0.2147731046
 C        -9.0011857888        8.5850026627       -0.7685619273
 O        -9.8527827842        8.7552619018       -1.6130362330
 C        -7.9460078567        9.6207824289       -0.7094885946
 C        -8.2968693632       10.7328185254        0.2306263078
 C        -7.3758730870       12.0147013522        0.0791513477
 O        -6.4608945649       11.9293162147       -0.6821224815
 C        -7.9628263288       13.4872867997        0.7764901766
 C        -8.4274063355       13.3072978816        2.2725032420
 O        -9.4621351681       12.7308389701        2.5332351919
 C        -7.5300599733       13.7106172850        3.5433726303
 C        -6.6577197394       14.4599076466        0.5277012809
 C        -9.1585665825       13.8806573128       -0.1417222938
 C        -9.2053548847        7.8008748909        1.6984559481
 C        -8.0572199549        6.3520714336        0.1142981737
 C       -10.8284171385        2.8779109660       -3.9050644802
 C       -11.3719343855        1.1009934932       -2.2152097761
 C        -4.8297164385       -1.7076918254       -2.5220970439
 C        -6.2823384128       -1.0348689590       -4.4343777298
 C       -11.5745593623       -4.5550315720        0.0134257479
 C       -11.8676466851       -3.0788479812       -2.0533211482
 C       -15.5162435268        0.9547851304        1.2269116012
 C       -13.5525816708        2.5133390973        1.6693756821
 H       -16.3919570477        2.7735060213        4.7536635623
 H       -17.2068577691        2.0392092035        3.6199524656
 H       -16.0616791099        3.1673923887        2.9321360506
 H       -14.7410932688       -1.5967279880        1.7425731425
 H       -13.8924822472       -1.6672323834        3.3226207173
 H       -12.5645117137       -3.3484898153        1.9791280258
 H       -11.7529151160       -1.7981235864        1.9108906731
 H        -8.9540496380       -3.9428820039       -0.8170825191
 H        -8.6681711868       -3.3205143270        0.7297807553
 H        -6.6404217790       -2.5669791994       -0.1695434930
 H        -7.5480559041       -1.0380473571       -0.2516013089
 H        -5.7638810044        1.7269515497       -3.9961829991
 H        -6.0814551714        2.5994320715       -2.7202864001
 H        -8.2799887584        0.9016768920       -4.0875453328
 H        -8.0188823723        2.6777306548       -3.9969491358
 H       -12.3665932647        5.0923122024       -1.1304712842
 H       -11.9492485603        4.7211114239       -2.8870092860
 H       -11.2241807272        6.7301500258       -2.1304448961
 H        -9.5131541928        6.0782861744       -2.0783607842
 H        -7.8479717798       10.1948947065       -1.6357820422
 H        -7.0029012245        9.2436932706       -0.3986260040
 H        -8.1270805759       10.3327008243        1.1966227487
 H        -9.3633874627       10.8905249824        0.0675176551
 H        -7.1879275971       12.7224066212        3.9904434934
 H        -8.2536936200       14.1356201203        4.2018862448
 H        -6.7723227841       14.4119223483        3.3294327025
 H        -6.9608070379       15.3704670627        0.0141429581
 H        -5.9507030562       13.9326573868       -0.1935876321
 H        -6.1951740841       14.8270197962        1.5084607920
 H        -9.6340724123       14.7658828445        0.3347866560
 H        -9.8896026233       13.0801546872       -0.3622278127
 H        -8.5843052571       14.2014589049       -0.9955222517
 H        -9.7957700172        7.0111084185        2.2341363056
 H        -9.5017614585        8.8439120746        1.8928018098
 H        -8.3484055298        7.6148213076        2.2457581686
 H        -7.6459389634        6.3468103009       -0.8681939382
 H        -8.5051484882        5.3499388463        0.3159291644
 H        -7.3901146046        6.4912003556        0.8849023204
 H       -11.9150559431        3.0517449424       -3.8915192685
 H       -10.7925307277        2.0464779751       -4.6986071394
 H       -10.1576004549        3.6393693830       -4.2115039160
 H       -11.2283009026        0.5301130180       -1.2841367576
 H       -11.4218057460        0.5020089524       -3.0941667869
 H       -12.4401730144        1.4269164808       -2.0234486200
 H        -4.7285215235       -1.6911875308       -1.4663065659
 H        -3.9714560371       -1.3280146176       -3.0301356198
 H        -4.7269726076       -2.7770270743       -2.7734623195
 H        -5.8691337730       -0.2725746262       -4.9988959463
 H        -7.3115368724       -1.1410290378       -4.8726807567
 H        -5.6290637890       -1.9525256680       -4.6788234609
 H       -10.9514658701       -5.1451855913       -0.6032311343
 H       -12.6224810467       -4.9123092483       -0.0775674101
 H       -11.2250930952       -4.7422397892        1.0821088064
 H       -11.7816969403       -4.0493501467       -2.4885463266
 H       -11.4005692904       -2.2590048616       -2.6475802426
 H       -12.9855892462       -2.7965233439       -2.1439734692
 H       -16.2471634379        0.4086582547        1.7792885926
 H       -15.3795113420        0.2912578041        0.3847638926
 H       -15.9839750012        1.8505077581        0.8921015936
 H       -14.3072844805        2.9994727210        1.0110095695
 H       -12.7101341959        2.1679698935        1.0186920616
 H       -13.1325801148        3.1991766031        2.3368334189
 Na      -10.3154788165        1.1826978381        0.9286795283
