117

 C       -15.8640881559        2.7682430781        3.7189520215
 C       -14.9321272269        1.5866598947        3.6131284169
 O       -14.4710595330        1.0297810884        4.5962659301
 C       -14.3973908208        1.3290913142        2.1653474542
 C       -13.2921720504        0.1979692575        2.1540130798
 O       -12.0703142669        0.3298590568        2.1249487464
 C       -13.8704798810       -1.2784021345        2.3781859028
 C       -13.1148286728       -2.4139124690        1.6475722564
 C       -12.7158665403       -2.1485275249        0.1130904636
 O       -13.2196605044       -1.1655350954       -0.4196466437
 C       -11.4959055836       -2.9081823596       -0.6792958974
 C       -10.2872081857       -2.1263589494       -0.2387838553
 O       -10.3078680129       -0.9494979765        0.0204232592
 C        -8.9514029215       -2.8292167520       -0.4792843506
 C        -7.7566816282       -2.0472700011       -0.5607028440
 C        -7.3170134726       -1.8605713673       -2.0410191086
 O        -8.1423062619       -2.2253967184       -2.8476350335
 C        -6.1022540598       -1.0914853616       -2.6149748636
 C        -6.0304624814        0.3496837238       -2.0406991220
 O        -5.3566899963        0.5557230140       -1.0861732906
 C        -6.6333243233        1.6332251797       -2.7566639866
 C        -8.0645952789        1.7529628535       -3.1877919251
 C        -9.0093337719        1.9775487038       -1.8978628008
 O        -8.7175205034        1.6077795244       -0.8199037958
 C       -10.5137197048        2.4481917087       -2.3788063208
 C       -10.7808522025        3.4358315147       -1.2597988369
 O       -10.4365741885        3.2769895516       -0.1307562069
 C       -11.5224717484        4.8043245847       -1.6220581338
 C       -10.5636641451        5.9434083392       -1.7576367036
 C       -10.4725378142        6.5763095011       -0.3109532942
 O       -11.4943410982        6.7154283710        0.2434703141
 C        -9.2254771259        7.2414535335        0.0537205033
 C        -9.0369237389        8.3920891046       -0.7322539253
 O        -9.6874993372        8.6300040335       -1.7384374533
 C        -7.9147137356        9.3959553360       -0.5062202811
 C        -8.2975432813       10.6989110006        0.4310108633
 C        -7.4032075428       11.9031227425       -0.0888545891
 O        -6.5931887217       11.9085093273       -0.9789699047
 C        -7.7502126421       13.4197179526        0.6005337371
 C        -8.2682631039       13.0691882579        2.0541768060
 O        -9.1454843078       12.2507667996        2.2102032259
 C        -7.5934024876       13.7420105758        3.1839954898
 C        -6.6773748171       14.3952256116        0.4635804323
 C        -8.9520169337       13.7735975542       -0.4491586297
 C        -9.5109110327        7.7804415837        1.4789154875
 C        -8.0726337388        6.1887233882        0.0292992750
 C       -10.4770493971        2.9778747365       -3.7791866001
 C       -11.3234079244        1.1771706858       -2.1207102043
 C        -4.7981392553       -1.8076339268       -2.2475567503
 C        -6.2339128400       -1.1416919929       -4.1487045949
 C       -11.5065979078       -4.3116246452       -0.1159308035
 C       -11.6717308227       -2.8573063933       -2.2594911675
 C       -15.4473479102        0.9918022170        1.1387024292
 C       -13.5613851646        2.6450093786        1.7581121650
 H       -15.7849966486        3.1164603877        4.7574223297
 H       -16.9361476248        2.6308078503        3.7419864664
 H       -15.6575124795        3.4995935280        2.9584590719
 H       -15.0201083617       -1.4193608876        2.1541951037
 H       -13.7344359613       -1.5808007371        3.3604564674
 H       -13.6720919513       -3.3139475973        1.7092928840
 H       -12.1274994429       -2.5633362053        2.1522900928
 H        -9.1988659268       -3.2142803555       -1.5122784170
 H        -8.9659363085       -3.7925333923        0.1495951913
 H        -7.0536209313       -2.4486229589        0.1461193240
 H        -8.0109455153       -0.9250898588       -0.2809062899
 H        -6.1008951417        1.7537930847       -3.7402453265
 H        -6.2896754885        2.5652634091       -2.2797963429
 H        -8.5363128635        0.8198961299       -3.6036959959
 H        -8.2494477801        2.6523025455       -3.7626425974
 H       -12.2347273091        4.9757867195       -0.7995706834
 H       -11.9665299559        4.5966004833       -2.5009055145
 H       -11.0544677294        6.6792200114       -2.4618766902
 H        -9.5851372828        5.6501821686       -2.1244563740
 H        -7.6161079275        9.9856309597       -1.4059901106
 H        -6.9976323627        8.8904407299       -0.0336131977
 H        -8.1294940160       10.5182211993        1.5679726700
 H        -9.3275500612       11.0305936253        0.2620621664
 H        -6.8742577139       13.0240612492        3.4452715570
 H        -8.2317056300       13.9370717013        4.0626134492
 H        -7.1860889662       14.6599994327        2.6959947053
 H        -6.9151736805       15.3288656604        1.0567732616
 H        -6.7079579177       14.5474577486       -0.6501130272
 H        -5.7216402381       14.0676922255        0.6743722377
 H        -9.4394004874       14.7533426419       -0.1995599498
 H        -9.7375414335       13.0088529199       -0.2488905004
 H        -8.4653261827       13.7136468462       -1.4650599886
 H        -9.8691875159        7.0188052615        2.1372779747
 H       -10.0086381761        8.7716599203        1.4675571473
 H        -8.5172370852        7.9629089483        2.0096800894
 H        -7.5881827404        6.1368244403       -0.9651992356
 H        -8.5218705991        5.2559365287        0.3079282183
 H        -7.4531301151        6.5021144239        0.9278967095
 H       -11.5210442594        2.9602370743       -4.0135586354
 H        -9.9392700184        2.4344379161       -4.4985775506
 H        -9.9717118009        3.9596718477       -3.8381493738
 H       -11.8464941713        1.1798431629       -1.1068709584
 H       -10.7952870640        0.2406855207       -2.4764277238
 H       -12.2236820546        1.1686085029       -2.7491444872
 H        -4.6194590974       -1.9559703498       -1.1723454626
 H        -3.8831270097       -1.6577579673       -2.8638365672
 H        -4.9977203289       -2.8546980963       -2.4592089113
 H        -5.3001042650       -0.9811911526       -4.7757105561
 H        -6.8425063902       -0.3008147295       -4.4573578005
 H        -6.6827021555       -2.0103806794       -4.5175161069
 H       -10.5725128462       -4.9579820343       -0.1469637495
 H       -12.3005504956       -4.8726014916       -0.6419832612
 H       -11.6655065793       -4.2060088172        0.9239063094
 H       -11.5438899503       -3.8554949039       -2.7139493469
 H       -11.0538181158       -2.0938090977       -2.6939015638
 H       -12.6538858607       -2.5640631599       -2.4982158030
 H       -15.7322081685       -0.0301822700        0.8906096897
 H       -15.1735567342        1.4368320643        0.2000386531
 H       -16.4128130001        1.5560533434        1.3680977377
 H       -14.0095027278        3.5724929156        2.0446392221
 H       -13.3084419763        2.7036378288        0.7024962823
 H       -12.6006281348        2.5076693084        2.4379961208
 Na      -10.2389946248        1.0332122709        0.8757220840
