117

 C       -15.4480853267        2.8588772157        3.9609607464
 C       -14.5306110300        1.6847638995        3.5798511135
 O       -14.3273717472        0.8289946606        4.4021487509
 C       -14.1979067744        1.6246134723        2.0648406211
 C       -13.3308612678        0.4009623003        1.8420722557
 O       -12.1689359028        0.5004331037        1.3849075497
 C       -13.9851330106       -0.9871550783        2.1562025764
 C       -13.2959417868       -2.1799712754        1.4466599133
 C       -12.9583430771       -1.7963746408        0.0069874311
 O       -13.5071061448       -0.9117615128       -0.6285426217
 C       -11.7012037058       -2.6393655761       -0.4876400793
 C       -10.3591280916       -2.1118586346        0.0094202847
 O       -10.2295320827       -0.9090563367        0.3472878217
 C        -9.0129426968       -2.8111030268       -0.2515263738
 C        -7.8391313775       -1.9620147208       -0.6482969669
 C        -7.5272494861       -1.6315143412       -2.1009801403
 O        -8.3073246543       -1.7448181678       -3.0296454944
 C        -5.9728541173       -1.1615026962       -2.2620221549
 C        -6.0924831910        0.1204186581       -1.4056347659
 O        -5.8584698752        0.1263120192       -0.2089735520
 C        -6.5571530540        1.4079880058       -2.1447083158
 C        -7.8929377549        1.6509527415       -2.7932030889
 C        -9.0457783138        1.8390400955       -1.7363274868
 O        -8.8421738347        1.5253436406       -0.5523730153
 C       -10.3240414160        2.3000733863       -2.2275129266
 C       -11.0369885536        3.2866472620       -1.3507825439
 O       -11.0744607808        3.1034812549       -0.1323061882
 C       -11.7794228045        4.5938826128       -1.7125648867
 C       -10.8154264474        5.8706143810       -1.8701726871
 C       -10.5884455855        6.7108774270       -0.3513633661
 O       -11.6162141095        6.7243267338        0.2985006110
 C        -9.2063519917        7.1754696377        0.0381877055
 C        -8.7312603988        8.2307403787       -1.0133297763
 O        -9.3444980039        8.4505394737       -2.0112398236
 C        -7.5446361672        9.1928295426       -0.5658241703
 C        -7.9554010030       10.4921083220        0.2127972909
 C        -7.2189879274       11.6565641723       -0.4532664800
 O        -6.5450713892       11.6231111848       -1.4109139263
 C        -7.6292575056       13.0884939899        0.1747275637
 C        -8.1469488140       12.9982478350        1.7554962447
 O        -8.9294449810       12.1707253324        1.9997066276
 C        -7.6437021121       13.9709960777        2.7690877764
 C        -6.4513488914       14.1093442889       -0.0744400218
 C        -8.8991060883       13.5804968688       -0.6722106035
 C        -9.4477440273        7.8554165675        1.4050034412
 C        -8.2989122775        5.8301038421        0.0363690798
 C       -10.3522600724        2.8108206629       -3.6813471969
 C       -11.1778258135        0.9474485201       -2.0382047553
 C        -4.9964125321       -2.2020695716       -1.7076930573
 C        -5.7363899897       -0.9268881522       -3.7827175714
 C       -11.9035007735       -4.2686289446       -0.0744698460
 C       -11.6564389524       -2.4694583961       -2.0027508769
 C       -15.4893742505        1.5528322972        1.0907979937
 C       -13.5029697523        3.0460074610        1.7686105042
 H       -15.0770505373        3.4763427496        4.8254634689
 H       -16.3622283266        2.5230816364        4.4087052739
 H       -15.7802001861        3.5416542294        3.1788056703
 H       -15.1107254073       -1.0122175462        1.8810171938
 H       -13.9269251470       -1.0864147705        3.1797476294
 H       -13.8210172158       -3.0943416879        1.4480775690
 H       -12.3224556607       -2.4080101199        1.8988330197
 H        -9.2774131040       -3.6447499374       -1.0109946065
 H        -8.7264287739       -3.2634251190        0.7076126061
 H        -6.9581489520       -2.3588611860       -0.1963560042
 H        -7.8699827953       -0.9290880223       -0.0446244658
 H        -5.8984219980        1.5852934168       -2.9711610906
 H        -6.4421432035        2.1449586818       -1.3140915875
 H        -8.1934920432        0.9370319868       -3.6120720396
 H        -7.9644501041        2.7251866116       -3.0928312291
 H       -12.4492829596        4.6977330302       -0.8343996832
 H       -12.1515436468        4.6295741514       -2.6787763459
 H       -11.3257647770        6.5415575311       -2.5215172800
 H        -9.8346026461        5.7667087078       -2.3299498038
 H        -6.9506030059        9.2819212121       -1.5262647446
 H        -6.8421743396        8.5860264005        0.1382835627
 H        -7.5069741181       10.3134681182        1.3071228348
 H        -9.0243397525       10.6495923183        0.3457292622
 H        -6.8453479433       14.5464302441        2.3004489943
 H        -7.2329942792       13.4393143070        3.6207707881
 H        -8.5543803755       14.5824423837        2.9985800889
 H        -5.6047528345       13.5405038592        0.0400728664
 H        -6.4549315450       14.9365514919        0.7313458858
 H        -6.6832469856       14.7014450253       -0.9191960582
 H        -9.6552791294       14.1184106623       -0.0245483588
 H        -9.4435066517       12.6178887167       -0.7616012143
 H        -8.6144431658       13.9585319913       -1.6582952367
 H        -9.1244478153        7.1952893672        2.2275658318
 H       -10.5860292234        7.8359416003        1.7049088131
 H        -9.2284341676        8.9020520152        1.4639707713
 H        -8.0609736208        5.3306943644       -0.9050198249
 H        -9.0601704030        5.2557596564        0.4708323610
 H        -7.4466556002        5.9346394549        0.6545348129
 H       -11.3502231788        2.8357870073       -4.1155789875
 H        -9.6115983542        2.2805989679       -4.3082099693
 H       -10.0344420952        3.8552753565       -3.6558585174
 H       -11.1208498881        0.5335239815       -0.9033435028
 H       -10.5756356428        0.1792587874       -2.5367087005
 H       -12.2457688437        0.8074878486       -2.3180827907
 H        -4.7161284146       -2.3563380483       -0.6820030411
 H        -3.9835898236       -2.0507967954       -2.1680402517
 H        -5.3210145405       -3.1818175028       -1.9595264871
 H        -4.9433316330       -0.2367836219       -3.8433549115
 H        -6.6053236837       -0.5384568392       -4.4201188542
 H        -5.3150136694       -1.7849240119       -4.3764714315
 H       -11.6283426006       -4.9526674082       -0.9017528709
 H       -12.9807525355       -4.4866924145       -0.1056533153
 H       -11.3938858150       -4.6930830026        0.7495892471
 H       -10.7116466870       -2.5502750956       -2.4864381658
 H       -12.1240251994       -1.4635970749       -2.2215410635
 H       -12.2664007228       -3.3296058326       -2.4060543008
 H       -16.4780439893        1.3869115127        1.3895522524
 H       -15.2113683133        0.9427733962        0.3143371768
 H       -15.4518468105        2.4847489854        0.4586130694
 H       -14.0928185228        3.9296296118        1.9189782458
 H       -13.1495691357        3.0169098809        0.7585544656
 H       -12.7603504033        3.1190587156        2.6303653663
 Na      -10.1738651726        1.3798167689        1.1245832205
