117

 C       -13.8447968097       -2.1947414123       -5.7158022015
 C       -12.6113794232       -2.9334564104       -5.1936998803
 O       -12.5949842955       -4.1155553757       -5.1013969982
 C       -11.2499332731       -2.1148858571       -4.6840956916
 C       -11.6563798333       -1.6520278065       -3.2831829295
 O       -12.3232868414       -0.6512228740       -3.1108650363
 C       -11.3406995593       -2.6047546389       -2.1471906211
 C       -12.1531533397       -2.2382223754       -0.8189217865
 C       -11.3531129063       -2.5147785626        0.4378767403
 O       -11.3042544089       -3.6023698691        1.0174146957
 C       -10.2715647639       -1.3702832685        1.0601654321
 C       -10.9250619757       -0.0950315864        1.6187653510
 O       -11.5854281446        0.6503226045        0.8967905263
 C       -10.5210682569        0.2610365844        3.0298902395
 C       -11.1985914499        1.4527075558        3.6393210061
 C       -10.3586267204        2.8794245639        3.5592344113
 O        -9.4152376337        3.0784081549        2.8027403161
 C       -10.9952393166        4.0596193475        4.4013312448
 C       -11.6765175996        4.9185753842        3.1593471343
 O       -10.9306310631        5.6173185583        2.4400271334
 C       -13.0993233264        4.8184234940        2.7783365285
 C       -13.1134793823        4.5914890640        1.2509391184
 C       -11.9438347570        5.0081229688        0.3740722384
 O       -10.9954934529        4.2161308287        0.2474124802
 C       -11.9364458683        6.2785682548       -0.6238780945
 C       -10.4588858023        6.3182458227       -1.2174025946
 O        -9.4232547301        6.0257655017       -0.6228545451
 C       -10.4102637231        6.7609599660       -2.7015346652
 C        -9.0059305357        7.5020312893       -2.8263229588
 C        -9.0202224335        8.9500800799       -2.1294473109
 O       -10.0166115842        9.5025336873       -1.7051386079
 C        -7.6302947501        9.6779636157       -1.9660393864
 C        -6.9267352651        8.8862044974       -0.7916347794
 O        -6.1540332123        7.9782797884       -0.9510630982
 C        -7.3185703684        9.3666757515        0.6412863665
 C        -6.3909042264        8.6783861761        1.6899572101
 C        -6.5586482581        7.0970921193        1.7791128181
 O        -7.6643877397        6.6228005881        2.0827089726
 C        -5.2511609616        6.2107819948        1.8139393615
 C        -5.5780005383        5.0492235381        0.5992785281
 O        -6.4655096098        4.2676719033        0.8513418497
 C        -4.6093370141        4.9769968598       -0.5099733387
 C        -3.8558912966        6.8893439116        1.4347979177
 C        -5.1709778485        5.5686636721        3.2466699443
 C        -6.7302981312        9.4395619293       -3.2652448848
 C        -7.7934482581       11.2327915426       -1.5911125423
 C       -13.0117568117        5.8979888729       -1.7308756902
 C       -12.3973848848        7.5111284807        0.1657141857
 C       -12.1033979865        3.6471827577        5.4757455851
 C        -9.8667675024        4.8631924589        5.0679431814
 C        -9.4020695295       -2.0970899711        2.1975718091
 C        -9.4348316084       -0.8068986247       -0.0234988377
 C       -10.1049254373       -3.0745100170       -4.7668101149
 C       -10.9216544192       -0.7427286844       -5.4854832697
 H       -14.3640231157       -2.9015283757       -6.1883135407
 H       -13.5431878659       -1.3864635966       -6.3256351079
 H       -14.4624447460       -1.8372859149       -4.9060113659
 H       -10.3107167956       -2.3558698841       -1.9648865967
 H       -11.4733757318       -3.6791594667       -2.5520198685
 H       -13.1762964163       -2.5754055042       -0.7457829339
 H       -12.2999534358       -1.1146920709       -0.7905175946
 H        -9.4320828045        0.5354102406        2.8991233486
 H       -10.7220264434       -0.5923753667        3.6840116843
 H       -11.4579184658        1.3048195401        4.6506092705
 H       -12.1217779551        1.6104604772        3.0033358848
 H       -13.6009978359        5.7400558613        3.0896866087
 H       -13.5845207786        3.9629421835        3.2789725735
 H       -13.9758022307        5.0433260158        0.8533387689
 H       -13.1523586763        3.4662691235        1.1214489612
 H       -11.1279159698        7.5647070206       -2.9867538866
 H       -10.5454287592        5.8459057093       -3.3171862834
 H        -8.6055449989        7.5740346002       -3.8736818318
 H        -8.1941651930        6.8778342646       -2.3066529486
 H        -8.3952695949        9.4638245091        0.8216859206
 H        -6.9282195789       10.3649256430        0.6987677940
 H        -6.6195410122        9.0691778545        2.6223294396
 H        -5.3534863104        8.8271393265        1.5147018492
 H        -4.7429252675        4.0319914086       -0.9918652886
 H        -3.6210248083        4.9496546244       -0.1882201637
 H        -4.7483610116        5.6747307030       -1.2550453792
 H        -3.6130347966        7.7972048340        2.0787658568
 H        -3.8382440266        7.2233777430        0.4240790711
 H        -3.0744113349        6.2046100703        1.6590552180
 H        -5.8616317342        4.7946074441        3.3425529840
 H        -5.5214291593        6.3086279414        4.0160772027
 H        -4.1744859565        5.3457013132        3.5769576302
 H        -7.1829587724        9.6795705421       -4.2224381483
 H        -6.1674737385        8.4632489350       -3.3239384684
 H        -5.8635756327       10.1638204004       -3.2592501675
 H        -6.8175086267       11.6278696773       -1.2572339439
 H        -8.5448353871       11.2674443570       -0.7294504012
 H        -8.2598741575       11.7915581663       -2.4221704792
 H       -13.9235059778        5.5447277254       -1.2415891654
 H       -12.6553225242        5.1618629574       -2.4095159892
 H       -13.2061488561        6.7964348752       -2.3757666688
 H       -11.8148020545        7.8844170916        0.9711243283
 H       -13.3751320007        7.2997645914        0.5252186584
 H       -12.4330443433        8.3539146430       -0.4534362591
 H       -12.8824708847        3.1276110813        5.0082387079
 H       -12.4189633623        4.5675776500        5.8672119045
 H       -11.5845252511        3.1484722242        6.3259162172
 H        -9.0486696731        4.4403330256        5.6031872246
 H       -10.1645058761        5.6756775287        5.7535166426
 H        -9.2880811587        5.3802904262        4.2447588936
 H        -8.8964354228       -2.9456001848        1.8108206933
 H       -10.0042757815       -2.4985221995        2.9400618370
 H        -8.7313527069       -1.4069371633        2.6859587987
 H       -10.0069708197       -0.2943432731       -0.7464148497
 H        -8.8740451423       -1.5666510066       -0.5906999810
 H        -8.6811011976       -0.0757343443        0.3632854809
 H       -10.4244588183       -4.0197061497       -4.2844876408
 H        -9.2565365358       -2.6434854718       -4.3160497049
 H        -9.9797341970       -3.2128798063       -5.8214238526
 H       -11.0743697097        0.1846532010       -4.8539276167
 H       -11.5231069756       -0.6525720558       -6.3919175603
 H        -9.9450480244       -0.7796553653       -5.9072923400
 Na       -8.8770204286        4.8049281095        1.4020641949
