117

 C       -15.6362790613        2.9501406713        4.5570457571
 C       -14.8381701801        1.8901715074        3.8065265491
 O       -14.3890372170        0.9232424569        4.3883076450
 C       -14.6261400222        2.0897766981        2.2402186027
 C       -13.6864974012        0.8064520476        1.9306154765
 O       -12.4518576126        0.8761694417        1.9439052930
 C       -14.3145871497       -0.5562563549        1.8244877961
 C       -13.1758459167       -1.7095424005        1.3645163215
 C       -13.0201139323       -1.7996516628       -0.2541407965
 O       -13.7632821711       -1.1727271856       -0.9683321195
 C       -11.8592700097       -2.7674783050       -0.7116563046
 C       -10.3805574747       -2.2894937467       -0.2334720773
 O       -10.1109680914       -1.2792222625        0.4021407557
 C        -9.2165363847       -3.3980894841       -0.5155500829
 C        -7.7385891444       -2.7257453679       -0.5566876354
 C        -7.4952657731       -1.6562217199       -1.6564956009
 O        -8.3799768210       -1.1404007070       -2.3641555750
 C        -6.1014271755       -1.0954140880       -1.8210220621
 C        -6.2010903477        0.2577244038       -0.9526282461
 O        -6.0075716189        0.1290273580        0.2462491852
 C        -6.2279198969        1.6476684809       -1.6704664297
 C        -7.4928548218        1.9290200397       -2.4951381724
 C        -8.8053467018        1.9937471911       -1.6526908063
 O        -8.6632299951        1.7197213927       -0.4462478660
 C       -10.1402790835        2.2540043185       -2.3202290570
 C       -10.8617697185        3.2919477595       -1.4224368517
 O       -10.7154558632        3.2297006910       -0.2043205544
 C       -11.5706806988        4.4870089976       -2.0429003505
 C       -10.7699939589        5.8214863258       -2.0270542933
 C       -10.6581956586        6.5163805838       -0.5479040244
 O       -11.5801319569        6.4807952537        0.1745083991
 C        -9.1881641711        6.9814899142       -0.0160504976
 C        -8.7039470710        8.0152369242       -1.0533249436
 O        -9.1130170852        7.8526387132       -2.2024355313
 C        -7.5796320078        8.9788197610       -0.6203818626
 C        -7.9657982989       10.3672893771       -0.1413143287
 C        -7.0908430992       11.4145812120       -0.7336020699
 O        -6.1330460084       11.3188233963       -1.4700673439
 C        -7.5003509536       12.9601124142       -0.2557745389
 C        -7.9350061914       12.9522407973        1.3320022377
 O        -8.6090796195       12.0944090584        1.7796665996
 C        -7.6483510767       14.2209005340        2.2576312522
 C        -6.3049563515       13.8165078406       -0.7741162569
 C        -8.9342496950       13.4726043001       -0.7677616102
 C        -9.4760997555        7.4884038052        1.4715014956
 C        -8.1483126851        5.7743441979       -0.1398566743
 C        -9.7681968789        2.6522628629       -3.8164352545
 C       -11.1688564148        1.1822365958       -2.0479440563
 C        -4.9566785582       -1.9772908885       -1.3004128261
 C        -5.7974773631       -0.8912118725       -3.3729138933
 C       -12.1246336913       -4.2182839935       -0.1914882078
 C       -12.1178743942       -2.6897100044       -2.2982113969
 C       -15.9635603496        2.4352741578        1.5882700223
 C       -13.7564435812        3.2886174014        2.0041817900
 H       -15.2093182290        3.9545686644        4.3346311210
 H       -15.8299004697        2.8762564966        5.5913075981
 H       -16.6616551297        3.1579388982        4.2237987926
 H       -15.1637883015       -0.5579475739        1.1256350527
 H       -14.7522127116       -0.7775145796        2.8011107702
 H       -13.5208504100       -2.6752826292        1.6988369790
 H       -12.2191611240       -1.5659966604        1.8903802228
 H        -9.5772805696       -4.0546540017       -1.3616436545
 H        -9.2043258197       -4.0182005923        0.3236668449
 H        -7.0083642566       -3.4712180297       -0.4759672043
 H        -7.5539681400       -2.0810034078        0.3968377965
 H        -5.4991133588        1.6289673512       -2.3789488959
 H        -6.1914037021        2.3859425930       -0.8579127010
 H        -7.8726183399        1.1050717282       -3.1629133618
 H        -7.3495318953        2.8737385890       -3.0602714185
 H       -12.6098844686        4.6142213180       -1.7467598925
 H       -11.5570105637        4.3606902652       -3.1311582595
 H       -10.9619631060        6.5999076684       -2.6821151155
 H        -9.7038404817        5.6798165726       -2.3126383258
 H        -6.8068676217        8.9834494830       -1.3930846677
 H        -7.0585864433        8.3967130995        0.1313390129
 H        -7.8639989243       10.3979680226        1.0135483419
 H        -8.9332956880       10.7580272902       -0.3828876518
 H        -7.0907334405       15.1463701000        1.9035261216
 H        -7.0960989127       13.8071937294        3.0522372695
 H        -8.6276696745       14.5090642864        2.5826847980
 H        -6.4236953641       13.9955537573       -1.8020723156
 H        -5.4136508601       13.2613690529       -0.5486241776
 H        -6.5578950462       14.7829432373       -0.2072471233
 H        -8.8802022282       14.5587232131       -0.7718518761
 H        -9.7215732791       13.0356540222       -0.2096462395
 H        -9.0425766837       13.1386626597       -1.7439997978
 H       -10.3209223322        6.9915968635        2.0380181961
 H        -9.9193891203        8.5241384788        1.3109565379
 H        -8.5862254255        7.6353757824        2.0245769878
 H        -8.3038463946        5.3118913655       -1.1364787218
 H        -8.5003604768        5.1178551197        0.6577475368
 H        -7.1817479184        6.0585508984        0.0121740509
 H       -10.6852829721        2.7268325092       -4.4175205681
 H        -9.2701632129        1.8299909148       -4.4048498059
 H        -9.3807611301        3.6273164732       -3.8643967492
 H       -11.3512203245        1.0169184954       -0.9483382758
 H       -10.8748668809        0.1696809576       -2.2500358923
 H       -12.1782654675        1.3976693180       -2.4871390904
 H        -4.9944112857       -2.2643416167       -0.2915747482
 H        -3.9606335541       -1.5223679704       -1.2665587575
 H        -4.9228114945       -2.9219940406       -1.7851414669
 H        -4.9827791371       -0.2845868421       -3.5502911088
 H        -6.7222989833       -0.4724000658       -3.8705289974
 H        -5.6131634469       -1.9130831808       -3.8915609475
 H       -11.6986066742       -5.0242584305       -0.7613280180
 H       -13.2044664991       -4.3917644504       -0.0233266005
 H       -11.8175860714       -4.3125284161        0.8545817438
 H       -12.5261722473       -1.7698679748       -2.5956421202
 H       -12.8959386269       -3.4731059152       -2.5743826534
 H       -11.1389304780       -2.9636878547       -2.8049538192
 H       -16.3180115623        3.3818725803        1.9529488572
 H       -16.7343880417        1.6874245945        1.6757890220
 H       -15.7489887899        2.6016686087        0.4925401719
 H       -14.4107149448        4.0793066677        2.4275585194
 H       -13.4783573505        3.4501038525        0.9458042252
 H       -12.8740741689        3.2271851847        2.6369145663
 Na      -10.3157724927        1.3850528000        1.0889577950
