117

 C       -15.6550835264        3.1199770025        5.0469966065
 C       -14.9914241675        1.9981713918        4.2091307765
 O       -14.6977976381        0.9312119855        4.7102190026
 C       -14.7399240319        2.3882840519        2.6317606434
 C       -13.6253989329        1.3874298670        2.0895121261
 O       -12.4587119480        1.6768418376        1.9356384137
 C       -14.1298169499        0.0303407477        1.5413276551
 C       -13.0651550046       -1.0303533842        1.1008509782
 C       -12.8786727698       -1.3298521809       -0.3680305721
 O       -13.5021553152       -0.6500927596       -1.2138545598
 C       -12.1129221318       -2.7218466684       -0.8125577730
 C       -10.6439217652       -2.5023032894       -0.3904863313
 O       -10.3617636065       -1.5351932055        0.3216933341
 C        -9.4259311290       -3.4871735369       -0.5917570917
 C        -8.1844860592       -2.7345668490       -0.2342666143
 C        -7.7166622186       -1.6918381933       -1.2261088311
 O        -8.4755803220       -1.2746268497       -2.0647430709
 C        -6.3016746671       -1.0952336267       -1.1530362608
 C        -6.1606269843        0.3419657155       -0.4398101790
 O        -6.0536617194        0.2960108489        0.7536220483
 C        -6.0327691377        1.8388090318       -1.1184796886
 C        -7.2124449503        2.3242550747       -1.8802987661
 C        -8.6978904593        1.8548714254       -1.4893698665
 O        -8.8263691068        1.3199470901       -0.4143175190
 C        -9.9613486783        2.1675350901       -2.4615674072
 C       -10.8151320069        3.1255394341       -1.5453626719
 O       -11.1146226103        2.7673279586       -0.4490124466
 C       -11.5194050459        4.3226253370       -2.2480685295
 C       -10.5569459710        5.5757447317       -2.0905541265
 C       -10.5753817943        6.0694753668       -0.6762343639
 O       -11.5609396344        6.0086264372        0.1006797868
 C        -9.2040875430        6.6872278560       -0.1177822169
 C        -8.5454550500        7.6822322671       -1.2972515385
 O        -8.8635172132        7.5185193677       -2.4457673933
 C        -7.4526600484        8.7700666950       -0.8551732320
 C        -8.0880622747       10.2243707020       -0.8673555625
 C        -6.9066207448       11.4404222160       -0.7003006241
 O        -5.7559127248       11.0516480316       -0.6719863098
 C        -7.3264343981       12.9635416737       -0.5736395708
 C        -7.4962724103       13.2539568364        0.9209675290
 O        -7.9218595756       12.2603820046        1.5414953140
 C        -7.3961136837       14.5741311717        1.5016974313
 C        -6.3589999640       13.8128824326       -1.5328791062
 C        -8.7587841700       13.2613431445       -1.2722191053
 C        -9.4572969385        7.3016049013        1.2043380528
 C        -7.9589846715        5.6436879742       -0.2432779813
 C        -9.4361444463        2.7321689194       -3.8480723686
 C       -10.9450882292        1.0146743315       -2.8816260958
 C        -5.2374137492       -1.8939319778       -0.4227255455
 C        -5.7743067170       -0.9099797624       -2.6227158235
 C       -12.4256271786       -3.8935711689        0.1172390038
 C       -12.2257494880       -2.9121918436       -2.3396000211
 C       -16.1259811265        2.4015012714        1.8687053434
 C       -14.1280240165        3.7946418728        2.6058028149
 H       -16.6672227823        2.9891215853        4.7500050835
 H       -15.3426937179        4.1643435447        5.1139612037
 H       -15.7529217787        2.9893873947        6.1091643635
 H       -14.5589434186        0.4099303201        0.6273570054
 H       -15.0269154870       -0.4493603844        2.1162065142
 H       -13.2152902393       -2.0349458730        1.5810369238
 H       -12.1584941682       -0.6753659619        1.4882337742
 H        -9.3608610935       -3.9038757142       -1.5844858971
 H        -9.5945043746       -4.3208097584        0.1859116009
 H        -7.2663267448       -3.4651645877       -0.0444350651
 H        -8.3615046044       -2.2111346125        0.6890861725
 H        -5.1890965080        1.7880301875       -1.8428100465
 H        -5.8348473207        2.4556982873       -0.2649797096
 H        -7.1973341195        2.1505444255       -2.9709187479
 H        -7.3177082910        3.4343766640       -1.8716740686
 H       -12.4172890822        4.6445145202       -1.7991822937
 H       -11.8628299551        4.1515206149       -3.3097639653
 H       -10.8732453574        6.3849211098       -2.7985260198
 H        -9.5781799361        5.4573886022       -2.5185648627
 H        -6.4939814959        8.7583033271       -1.4265235195
 H        -7.1715007630        8.4213924137        0.1392365867
 H        -8.7571438546       10.4069172010       -0.0722037860
 H        -8.5173928171       10.5366827632       -1.8655371386
 H        -7.5470869166       15.2985594978        0.7668334321
 H        -6.3129827658       14.6242817815        1.7871314439
 H        -8.0204575445       14.7484635407        2.3660019940
 H        -6.4669209993       13.4005710410       -2.5602107041
 H        -5.4219097414       13.6370001953       -1.0147819349
 H        -6.7329912214       14.7429958602       -1.6693802917
 H        -9.2209147850       14.1586335248       -0.8858871835
 H        -9.4548949594       12.4467965711       -1.0944830412
 H        -8.5975366411       13.4208293006       -2.3217720104
 H        -9.4461959398        6.6240270392        2.0578033001
 H       -10.3658950213        7.8512471210        1.1191350990
 H        -8.5319836999        7.9428242044        1.4528190714
 H        -7.8366404673        5.4271088257       -1.2397704958
 H        -8.1820574920        4.8651390394        0.4666187871
 H        -7.0264389194        6.0640951266        0.2020772954
 H       -10.4060932048        3.0704756256       -4.2996356508
 H        -9.0914739196        1.9713852221       -4.4993219561
 H        -8.7015503987        3.5619182878       -4.0311554275
 H       -11.6911692746        0.6560446895       -2.0834054710
 H       -10.3850887914        0.0478407097       -3.0480301834
 H       -11.5824711138        1.2087235627       -3.7921476307
 H        -5.4587756269       -2.1081630950        0.6193602950
 H        -4.2754522633       -1.5378592997       -0.4148836468
 H        -5.0485074667       -2.8637881207       -0.8606751770
 H        -4.6198819438       -0.7011820556       -2.4725619721
 H        -6.2191773687       -0.1167040825       -3.2020490391
 H        -5.7237386564       -1.8666995426       -3.0878607016
 H       -11.5996862123       -4.5890314978        0.1664618437
 H       -13.2464927056       -4.5256313239       -0.2092668968
 H       -12.8634066294       -3.6494626379        1.1183671098
 H       -12.7692587423       -3.9291030720       -2.5202675890
 H       -11.2706468801       -2.8907247823       -2.8137544594
 H       -12.8269334344       -2.1283771257       -2.8273334227
 H       -17.0333332364        2.6118276131        2.4524959587
 H       -16.1925549292        1.3418860080        1.4924656775
 H       -16.0069211807        3.0466702627        1.0644611533
 H       -14.9949780958        4.4287734993        2.7179717009
 H       -13.5282692655        3.9576801246        1.6964601480
 H       -13.3692157485        3.8339435940        3.4011556988
 Na      -10.9911529792        0.7692976365        0.3269469800
