117

 C       -15.6246987451        3.0018305165        5.2382284209
 C       -15.1081746940        2.0504641762        4.1997107190
 O       -14.6699460455        0.9721819524        4.4797837003
 C       -14.7561013912        2.4227305763        2.6871850690
 C       -13.7470577032        1.4467423471        2.0903150666
 O       -12.5219304933        1.7228743474        2.0725198447
 C       -14.2068452938        0.0988233450        1.4625314141
 C       -13.1110203177       -0.8931236764        1.1979788495
 C       -13.0001370036       -1.3118917791       -0.3282396933
 O       -13.3367621174       -0.4774871471       -1.1869479932
 C       -12.1532635941       -2.6833162472       -0.7676456682
 C       -10.6305729986       -2.4299716229       -0.3473179828
 O       -10.4110638762       -1.4861315163        0.4861343701
 C        -9.4277013442       -3.3717820701       -0.6105016847
 C        -8.0263866461       -2.8880962113       -0.1159890238
 C        -7.6384788705       -1.5864895343       -1.1972924959
 O        -8.5862735579       -1.3888499281       -1.9523714824
 C        -6.1954745200       -0.9793557989       -1.0925706301
 C        -6.3037611828        0.3005121060       -0.2305983282
 O        -6.1559613750        0.2624050687        0.9941252718
 C        -6.1837493761        1.7262776809       -0.9681026319
 C        -7.2139093110        2.1484044596       -1.9892956882
 C        -8.7085575061        1.7769419594       -1.6015261209
 O        -8.8373652923        1.2505545834       -0.5084662497
 C        -9.9823387709        2.0528535351       -2.5920200719
 C       -10.9413564786        3.0429738826       -1.8937004051
 O       -11.2112060541        2.8501420852       -0.6937676244
 C       -11.5773933751        4.2895141007       -2.3891900449
 C       -10.5540032958        5.5577842220       -2.0388503230
 C       -10.5204114789        5.9687561026       -0.5815528953
 O       -11.5429978649        6.0053337860        0.0222254748
 C        -9.1920077761        6.8068999121       -0.1248599294
 C        -8.6273917861        7.6939274448       -1.3027535818
 O        -8.7387424485        7.5143367297       -2.4702537433
 C        -7.4809749823        8.7535623536       -0.9292555140
 C        -7.9159471154       10.1752266806       -0.9902802866
 C        -6.8374135905       11.2066239087       -0.7993713606
 O        -5.7230627574       10.9490734575       -0.5313271217
 C        -7.2559154805       12.9289865040       -0.7891012838
 C        -7.4352314640       13.2976387886        0.7530930920
 O        -7.8589281389       12.3123751414        1.3525503139
 C        -7.3885050781       14.7017868914        1.4187020359
 C        -6.3024414067       13.9323923916       -1.6639162744
 C        -8.7402086049       13.3045510795       -1.1595007883
 C        -9.2999723643        7.2528984234        1.2628064140
 C        -7.9935668751        5.7052423024       -0.1100651371
 C        -9.3874155158        2.8018757250       -3.8387755309
 C       -10.7193675677        0.8822876108       -3.0647544534
 C        -5.3466088235       -1.9381591870       -0.3196789735
 C        -5.5513962322       -0.7784731255       -2.5902826487
 C       -12.6374428158       -3.8982518498        0.0270714893
 C       -12.2584863670       -2.9728595850       -2.2487203480
 C       -16.0512498732        2.3621094997        1.9136740072
 C       -14.1426005538        3.8800070225        2.6591099974
 H       -16.6636497496        2.8903340146        5.4827407635
 H       -15.3857725752        4.0553579806        5.1269238687
 H       -15.2016696474        2.8564826696        6.2110349849
 H       -14.7806015191        0.2999855928        0.4889035516
 H       -14.8858373080       -0.3149453299        2.0930366339
 H       -13.1645697656       -1.7523826449        1.8337333919
 H       -12.2410657923       -0.3497841402        1.3866608131
 H        -9.2701366129       -3.4452113473       -1.7233698709
 H        -9.6574972140       -4.4503051840       -0.1853265719
 H        -7.3043962843       -3.7561168902       -0.1116787268
 H        -8.1350454757       -2.5380661783        0.9333927232
 H        -5.2007741335        1.5463120227       -1.6150949202
 H        -6.0016032019        2.4752058106       -0.1942382538
 H        -7.0699454970        1.9280431390       -3.0364463207
 H        -7.2461106138        3.2666500533       -1.9996269995
 H       -12.6375130870        4.5348361845       -2.0076449678
 H       -11.7703550767        4.1956186027       -3.4087507032
 H       -10.6992815751        6.4968921429       -2.7057803630
 H        -9.5851268540        5.2882554621       -2.3868740665
 H        -6.6993674548        8.5525560874       -1.7556407973
 H        -6.9076727608        8.4875765247        0.0643532917
 H        -8.6246315481       10.4332135422       -0.2084765468
 H        -8.3212257949       10.5230206383       -1.9933398073
 H        -8.0634255349       15.2803871890        0.7937605080
 H        -6.4068532946       15.1961889615        1.3879817155
 H        -7.8035395574       14.7166623608        2.4474164907
 H        -6.5870614520       13.7335111267       -2.6733965669
 H        -5.2283951474       13.6606802530       -1.3286806087
 H        -6.6576306045       14.9640474579       -1.4931862368
 H        -8.7067322028       14.3667735104       -0.8809205733
 H        -9.4588498672       12.9817373354       -0.4076202351
 H        -9.1485667148       13.2448894835       -2.1998694238
 H        -9.3543213709        6.3392043392        1.8665909325
 H       -10.2767028809        7.8784532281        1.4017007194
 H        -8.3913370020        7.6769186908        1.6467137286
 H        -7.7590283532        5.3834599231       -1.0771845859
 H        -8.2154197417        5.0172442336        0.6305801352
 H        -7.1308770531        6.2569336374        0.3108470522
 H       -10.1428907716        3.3779718065       -4.2690560960
 H        -8.9218972352        2.2240713660       -4.5701519018
 H        -8.5864698334        3.5596208530       -3.6093832333
 H       -11.4221172119        0.4216436130       -2.2579161395
 H       -10.1812047854       -0.0002283908       -3.5086102415
 H       -11.4540848201        1.2600114448       -3.8474716973
 H        -5.7112298696       -2.1599680404        0.6770994890
 H        -4.3014816597       -1.7219587663       -0.2315428004
 H        -5.2777490169       -2.8937780460       -0.7768649115
 H        -4.5290086403       -0.4868090457       -2.5217072379
 H        -6.1165766198       -0.0046932814       -3.2017522392
 H        -5.4711340229       -1.7761344636       -3.0279757195
 H       -12.0469805285       -4.8402068988       -0.2403571261
 H       -13.6770797002       -4.2100253784       -0.0876936355
 H       -12.5856641436       -3.7429251960        1.0868774190
 H       -12.2175276550       -4.0736959704       -2.3027830382
 H       -11.4885319605       -2.4788651258       -2.9034087506
 H       -13.2720102061       -2.7192400301       -2.6670220874
 H       -16.7883711325        2.6306994086        2.6302851240
 H       -16.3324215257        1.4468113045        1.5210205811
 H       -15.9799480521        3.1615789966        1.1493294716
 H       -14.9505030511        4.5633289657        2.7104514496
 H       -13.5309505885        3.9537671596        1.7675118668
 H       -13.3167421790        3.8826155510        3.4827391464
 Na      -11.1016525158        0.6711560864        0.4563754883
