117

 C       -15.5528793687        2.8334374213        5.2616487966
 C       -14.8572575795        1.9892860352        4.2503993332
 O       -14.7279177378        0.8020578231        4.4543385796
 C       -14.7894096870        2.5424438157        2.6869773297
 C       -13.7940866431        1.5002244373        2.0620883447
 O       -12.5975979199        1.7355776065        2.1500829139
 C       -14.3046790244        0.1652617201        1.3877073146
 C       -13.2752413115       -1.0050873688        1.2611253339
 C       -12.8832876125       -1.2606821092       -0.2675927471
 O       -13.0833120672       -0.4796347060       -1.1131960381
 C       -12.0802395912       -2.6063428623       -0.5842714040
 C       -10.6148271801       -2.3266834007       -0.0518332932
 O       -10.3048343395       -1.3870622161        0.6201379703
 C        -9.5829037216       -3.3376790640       -0.6171803829
 C        -8.1273237116       -2.8730775718       -0.2969955731
 C        -7.6553578151       -1.6841833317       -1.1458642558
 O        -8.4086943390       -1.2307739362       -1.9318323794
 C        -6.2327966590       -1.1315277716       -0.9538080342
 C        -6.3234264724        0.2955243039       -0.1242233184
 O        -6.3863731474        0.2736516626        1.0567567448
 C        -6.3554343653        1.7024591054       -0.8122361628
 C        -7.2886755265        1.8979919450       -2.0483681887
 C        -8.7642563598        1.6395531182       -1.6825824486
 O        -9.0965966876        1.1354371072       -0.6520986902
 C        -9.8595763782        2.1767512538       -2.7231551414
 C       -11.0030529284        3.0188847305       -1.9170389933
 O       -11.3819131269        2.7012628258       -0.8021767506
 C       -11.5039092551        4.3603247393       -2.5311293071
 C       -10.5292997085        5.4548802750       -2.2195277137
 C       -10.5147409281        6.0866206665       -0.7294981621
 O       -11.3665204062        6.0088644314        0.0855924844
 C        -9.0986656741        6.7269782551       -0.1557993005
 C        -8.4824569577        7.7725375255       -1.2791961416
 O        -8.8270201249        7.5215068801       -2.4556829124
 C        -7.4648853769        8.9090038172       -0.9095507243
 C        -7.9967250507       10.2793105822       -1.1634882679
 C        -6.7646255671       11.4084961936       -0.8885484537
 O        -5.7301436842       10.9949709975       -0.4659605611
 C        -7.2468358775       12.9408880299       -0.8878599096
 C        -7.3505450903       13.1628910218        0.6269604559
 O        -7.7327770015       12.3950568181        1.4507723335
 C        -7.2759267116       14.6523197156        1.1082864314
 C        -6.2236001571       13.7628035628       -1.6049812402
 C        -8.7272572324       13.1657351330       -1.3173210782
 C        -9.2722972081        7.3467658906        1.3064021026
 C        -8.0330202912        5.5758698066       -0.0130812360
 C        -9.2444311117        2.9312292021       -3.9862279929
 C       -10.4513916184        0.6700105034       -3.1726382310
 C        -5.3102189945       -2.0505643173       -0.2441496224
 C        -5.6038147530       -0.7204913514       -2.3091453856
 C       -12.8758990208       -3.8052344265        0.0394832423
 C       -12.2673038382       -2.9147755240       -2.1873358163
 C       -16.2198958956        2.4926983751        1.8837587056
 C       -14.1138672671        4.0585241070        2.6935391437
 H       -16.5220373165        2.5058453720        5.6766424657
 H       -15.6007359771        3.8594118549        4.9846924272
 H       -14.9977619222        2.9793137487        6.1866969534
 H       -14.8837233672        0.3347446195        0.4468489690
 H       -15.0480031715       -0.2067844645        2.0766502363
 H       -13.8102747965       -1.8612127011        1.5717659558
 H       -12.4423619113       -0.8809862958        1.9384305426
 H        -9.6684153135       -3.3612547421       -1.7642233061
 H        -9.6544217248       -4.3289862669       -0.2198113857
 H        -7.5028795870       -3.6520187917       -0.4410900172
 H        -8.0906063775       -2.6066186312        0.7989082691
 H        -5.3345765190        1.9428978942       -1.1644644095
 H        -6.6125959835        2.4088116322        0.0828684201
 H        -7.1728524110        1.3076026566       -2.9533181067
 H        -7.1958169129        2.9089172444       -2.4568706572
 H       -12.4903019310        4.7723113794       -2.2571729385
 H       -11.6288643639        4.0964261708       -3.6205411855
 H       -10.5798875582        6.2306653290       -3.0164692807
 H        -9.4490657780        5.0321995482       -2.4254369743
 H        -6.5907850173        8.6315440421       -1.5661464538
 H        -7.0795566500        8.7951669533        0.1542389180
 H        -8.7664737324       10.4953588656       -0.3403334713
 H        -8.4108125134       10.4632358278       -2.1243114178
 H        -8.3375417634       15.0804246922        0.9011749194
 H        -6.5414102755       15.3906058951        0.8306959646
 H        -7.2783963856       14.5402074155        2.1996749900
 H        -6.6600298900       13.7464399585       -2.6113731354
 H        -5.2763253137       13.3268281767       -1.4414016099
 H        -6.4029862339       14.8866575302       -1.1962082299
 H        -8.9308775343       14.2701808977       -1.5154346193
 H        -9.3271472298       13.0532820441       -0.3816663887
 H        -9.0907324325       12.5349395631       -2.1763479177
 H        -9.5317460094        6.5649180496        2.0589749662
 H       -10.0627364087        8.0921572037        1.2451103013
 H        -8.3400698757        7.6931703970        1.6616250092
 H        -7.6679267080        5.1325308366       -0.9849079976
 H        -8.2581004665        4.8968376590        0.8111067642
 H        -7.2761484434        6.1927246652        0.3078032401
 H        -9.9426741865        3.3084630787       -4.6829689735
 H        -8.4416463409        2.3080244488       -4.4357658418
 H        -8.6737944733        3.7392709464       -3.7381443912
 H       -10.7410438617        0.1835427680       -2.2845604187
 H        -9.8261634671        0.0220663467       -3.8201350141
 H       -11.4116323043        0.8915214915       -3.7424315829
 H        -5.6240985083       -2.2191807026        0.7695970143
 H        -4.2344894623       -1.6964350627       -0.2230932091
 H        -5.1788027590       -3.0731908006       -0.5741257539
 H        -4.7662815943       -0.1454765681       -2.1322692357
 H        -6.3092899545       -0.1125003593       -2.8429328919
 H        -5.2349778849       -1.6038774808       -2.8727371895
 H       -12.8015002466       -4.7030183787       -0.5824816621
 H       -13.9837634717       -3.6559475436        0.0920674444
 H       -12.5649171265       -4.1577265370        1.0342362117
 H       -11.6323142293       -3.6745789269       -2.4943261368
 H       -12.1964642108       -1.9727294515       -2.8254345344
 H       -13.2847246299       -3.3470448080       -2.3141588511
 H       -16.8045379045        3.1790488622        2.4519703805
 H       -16.7096826467        1.5538181262        1.9224762156
 H       -16.0773298549        2.8930335387        0.8631554102
 H       -14.9013474156        4.8059530121        2.9313142482
 H       -13.7239819893        4.1761020655        1.6821825126
 H       -13.2553035652        4.0101167784        3.2854828671
 Na      -11.1197287799        0.7584785303        0.5238754563
