117

 C       -15.3830712252        2.7199047720        5.2458257528
 C       -14.9410930202        1.8112074702        4.1262372259
 O       -14.7366827268        0.6076964861        4.2356834131
 C       -14.8014962075        2.5505936615        2.7862255855
 C       -13.8358211490        1.4739470455        1.9370262130
 O       -12.6226907193        1.6969801746        2.0139527960
 C       -14.5479007426        0.4059284352        1.2334983918
 C       -13.8238352429       -0.9372703209        1.2581126671
 C       -12.9329869900       -1.0818279620        0.0376299977
 O       -12.6854692844       -0.0162079327       -0.6261822353
 C       -12.2475884274       -2.4372143681       -0.4412965931
 C       -10.6836045593       -2.4274372895        0.0631321463
 O       -10.3536790698       -1.4479826978        0.7870794181
 C        -9.6576647199       -3.4191344958       -0.4848697124
 C        -8.1164748841       -2.8493261422       -0.3749651280
 C        -7.6071880695       -1.6246371230       -1.1332376647
 O        -8.2484568603       -1.1432422239       -2.0489928901
 C        -6.1616512978       -1.1446120503       -0.8320169373
 C        -6.6003720808        0.1631224830        0.1301109153
 O        -6.8172438417        0.0517811033        1.3419793462
 C        -6.5704826953        1.5066048850       -0.5734826528
 C        -7.3464393711        1.7232025089       -1.8509752258
 C        -8.9066545761        1.5929384764       -1.7052600243
 O        -9.2561356976        1.0683858750       -0.6107048858
 C        -9.8333030591        2.0890116278       -2.9189333165
 C       -10.9695085131        2.8936802995       -2.1219800814
 O       -11.7619870090        2.3636387162       -1.3752198380
 C       -11.2855417287        4.4186378131       -2.4754433243
 C       -10.2330414324        5.6137668637       -2.2923238156
 C       -10.2348629015        6.0195912274       -0.8007730327
 O       -11.2181913773        5.9132290271       -0.0899848789
 C        -8.9915245480        6.6324203492       -0.2616785478
 C        -8.4286582945        7.7290062287       -1.3458806772
 O        -8.7575768352        7.9464802339       -2.4549057016
 C        -7.4265878548        8.8354015388       -0.6591188735
 C        -7.8876997403       10.1874140064       -1.3204574578
 C        -6.9495129649       11.2377256502       -0.9514220108
 O        -5.7857447217       10.9935335998       -0.6712853516
 C        -7.4186476663       12.7785461812       -0.9661393141
 C        -7.3458193166       13.3835746365        0.5660649486
 O        -7.3715363356       12.5733827458        1.4986795382
 C        -7.1416872991       14.7439055500        1.0558679063
 C        -6.1355874920       13.4365439156       -1.7192352442
 C        -8.6464992923       13.0921991703       -1.8458364616
 C        -9.3766578475        7.5573032211        1.0191272900
 C        -7.9530538040        5.4623686449        0.0686960309
 C        -9.2126372630        2.9068689786       -4.0799645167
 C       -10.4602114089        0.8012172509       -3.5395702434
 C        -5.4165328499       -2.0305068434        0.1643365622
 C        -5.3297492553       -0.9991587708       -2.1425381864
 C       -12.8105822790       -3.6837446039        0.3668388195
 C       -12.2200694211       -2.5125110230       -1.9974353972
 C       -16.2475921159        2.6270633634        2.1033768655
 C       -14.0079674019        3.9396114023        2.8227861156
 H       -15.8674833325        2.1387137254        6.0064510076
 H       -16.2093942097        3.4374840224        4.9902339801
 H       -14.7367881391        3.3724243539        5.8323262732
 H       -14.8257412759        0.7454464401        0.2219978881
 H       -15.5267542489        0.3043092286        1.7308666668
 H       -14.5904529130       -1.7631911706        1.3475906573
 H       -13.1543922137       -1.0167709727        2.1540524429
 H        -9.9440570193       -3.7869949921       -1.4235263372
 H        -9.5600776062       -4.2968393776        0.2167922202
 H        -7.4470688168       -3.7250118016       -0.7720907458
 H        -7.9417594556       -2.7215299376        0.6561052569
 H        -5.5506144228        1.9071633559       -0.7453935467
 H        -6.8662910960        2.1511656858        0.1813469370
 H        -6.9855213047        1.0825803742       -2.6941798878
 H        -7.0909859446        2.7609899141       -2.1985481300
 H       -12.2170611328        4.7306814121       -1.9059438595
 H       -11.6391749983        4.2711909006       -3.4795160621
 H       -10.4369251484        6.4282618658       -3.0534437034
 H        -9.3026619111        5.1924079287       -2.5951369562
 H        -6.4417944562        8.6259904485       -0.9254895693
 H        -7.5417228641        8.9115114357        0.3854648336
 H        -8.8403357446       10.4898562416       -1.0568164239
 H        -7.8284198777       10.1093746899       -2.4402972377
 H        -8.0290696497       15.2778271768        1.1620868717
 H        -6.4863960455       15.2920855065        0.3581283029
 H        -6.5740535539       14.7282127292        2.0015015728
 H        -6.0765687637       12.8182746835       -2.5872416692
 H        -5.2497370545       13.3356326457       -1.0251404398
 H        -6.3801111690       14.4253271593       -1.8203081893
 H        -8.8017003588       14.1461730513       -1.9121536556
 H        -9.6451333443       12.6938440536       -1.6172842480
 H        -8.2524446561       12.7961069426       -2.8290892882
 H       -10.1089275971        7.1199926668        1.6121625234
 H        -9.7183816636        8.5863670988        0.7374272326
 H        -8.4477149184        7.5613779222        1.5684847926
 H        -7.8768903331        4.9683969003       -0.8968922082
 H        -8.5755342416        4.8241982208        0.7181488092
 H        -6.8489851168        5.7237081082        0.4314541949
 H        -9.9295074089        3.1253672027       -4.8855981428
 H        -8.2585477800        2.6430841961       -4.4399471326
 H        -8.9845571615        3.9770582451       -3.6426572839
 H       -10.8937369910        0.1281269421       -2.7370964892
 H        -9.5858556736        0.2832649920       -3.9922421808
 H       -11.0813561533        0.7963625111       -4.3843737923
 H        -5.9267170134       -2.0932684062        1.1544825518
 H        -4.4507454312       -1.6014977236        0.3168304645
 H        -5.2075554040       -3.0983799429        0.0285157292
 H        -5.1828480753        0.0708000493       -2.4136334703
 H        -5.9640301598       -1.4172214215       -2.9652449473
 H        -4.4123280691       -1.5116949243       -2.0428358684
 H       -12.5065281427       -4.7287124373        0.1205188754
 H       -13.8896216220       -3.7922859530        0.3089086058
 H       -12.4406601036       -3.6022320660        1.4022425481
 H       -11.2426509604       -2.1967705621       -2.4246544225
 H       -12.8541989654       -1.7402047944       -2.3115586800
 H       -12.4536364199       -3.4527419148       -2.4282505920
 H       -16.6036635436        3.6947224690        2.0377672357
 H       -16.9472256675        2.0207042144        2.7114362285
 H       -16.1277927452        2.1704496113        1.1084834495
 H       -14.3874809304        4.4479713725        3.6566986827
 H       -14.2144854695        4.4952977750        1.9274938717
 H       -12.8978588991        3.6768447725        3.0335415911
 Na      -11.1506062169        0.9873737089        0.5558386067
