117

 C       -15.2900790749        2.3595530462        5.5496138923
 C       -14.9435685793        1.6643685901        4.1420176890
 O       -14.9292044910        0.4318703415        4.2050935942
 C       -14.8416109187        2.5442963029        2.8486523699
 C       -14.1625219404        1.5130912229        1.8752785110
 O       -12.9775242158        1.6461174446        1.7885934941
 C       -14.9353108306        0.4119781140        1.1782462114
 C       -14.3093872131       -0.9195380117        1.0887552265
 C       -13.0882483230       -0.9601486844        0.1737176075
 O       -12.7987370368        0.0676140925       -0.5579118129
 C       -12.2749540265       -2.2749300461       -0.1185663862
 C       -10.7574995389       -2.0950674254        0.2284988261
 O       -10.2618327936       -1.1154396155        0.8361460481
 C        -9.7633026992       -3.0534428244       -0.4015087173
 C        -8.3078179990       -2.9445441234        0.0881127543
 C        -7.4776037156       -2.0168703769       -0.9742188243
 O        -7.9783727951       -1.7495016200       -2.0722614955
 C        -6.2415681625       -1.3359799468       -0.4034993916
 C        -6.9458759805        0.0888728049        0.2206974010
 O        -7.5475773958        0.0043479197        1.2757132958
 C        -6.6376157631        1.3201623232       -0.5385833266
 C        -7.3870982318        1.7507272109       -1.8786745440
 C        -8.8766212325        1.7129445998       -1.7898374496
 O        -9.3331685456        1.4659611516       -0.6569810216
 C        -9.7820941840        2.0922433221       -3.0337210827
 C       -11.0990134231        2.9672434557       -2.5044601429
 O       -11.9435879321        2.4090447125       -1.8365364904
 C       -11.0409816508        4.4507394631       -2.9398929023
 C        -9.8818413775        5.2579098038       -2.2236075297
 C       -10.1862962020        5.7958587791       -0.9036173144
 O       -11.3212963169        5.6552756435       -0.4194079029
 C        -9.0633026177        6.7657250908       -0.2522241295
 C        -8.4614051883        7.7714788782       -1.3279777075
 O        -8.6606522047        7.4959909085       -2.4977511008
 C        -7.5312666490        8.9691246266       -0.9215273488
 C        -7.8263596403       10.4188089014       -1.1200321221
 C        -6.4981524086       11.2905572868       -1.1118224935
 O        -5.3476930485       11.0464754911       -0.7034281566
 C        -6.8686632359       12.7175145369       -1.1993485031
 C        -7.0531047734       13.3872377688        0.2562899291
 O        -7.3590406723       12.6281822958        1.1785347365
 C        -7.2837308516       14.8641282031        0.3943989781
 C        -5.8132816520       13.6412131209       -2.0197996694
 C        -8.3193114058       13.1751018560       -1.7379875551
 C        -9.6515099792        7.2615392999        1.0465937513
 C        -7.7294075112        5.8086650545        0.0525915798
 C        -8.9185394314        2.6905275500       -4.1718050148
 C       -10.2873511563        0.8238537214       -3.4523476543
 C        -5.5607164141       -2.3163233365        0.5856511694
 C        -5.2083400086       -1.0517179232       -1.4451650649
 C       -12.6973199217       -3.5472442816        0.6725101417
 C       -12.3586522709       -2.3367358225       -1.7032558114
 C       -16.2624211659        3.1857248663        2.4191354766
 C       -13.8894044264        3.8543097671        3.0612047011
 H       -14.6129049769        2.1595787680        6.3449456952
 H       -16.2307838259        2.0001503776        6.0342608859
 H       -15.3307515331        3.4453621111        5.6160802958
 H       -15.2166739613        0.8175632107        0.2444838761
 H       -15.9937926300        0.3025990101        1.6756845467
 H       -15.0888926966       -1.5812811241        0.7121771930
 H       -14.1228596321       -1.3161344183        2.0469125221
 H        -9.6004938828       -2.6637001352       -1.4316187992
 H       -10.1303030879       -4.0383799009       -0.5710269834
 H        -7.7294376269       -3.8727227752        0.1771110751
 H        -8.3613579597       -2.4402387118        0.9815012476
 H        -5.5558794392        1.3311945057       -0.5552050736
 H        -6.6849683750        2.2033449371        0.1419190106
 H        -7.0122895687        1.2661178827       -2.8063672176
 H        -7.1683880087        2.7957615887       -2.0490316026
 H       -11.9595826622        4.8561872613       -2.5922424324
 H       -10.9983116073        4.5457068118       -4.1019768496
 H        -9.7869375294        5.9611937932       -2.9994018643
 H        -9.1248670169        4.4367494254       -2.3229760498
 H        -6.7961678820        8.7154113616       -1.7206195495
 H        -7.1567434718        8.7471228840        0.0483549408
 H        -8.3290120627       10.8680902036       -0.2111251055
 H        -8.4766796285       10.4532289612       -2.0243852356
 H        -8.2962177630       15.1587617109        0.6119910649
 H        -7.1154592050       15.4370075317       -0.5760753712
 H        -6.5302903879       15.2438463137        1.1153882601
 H        -5.0734761960       12.9114527768       -2.4574634217
 H        -5.3025239025       14.0981135033       -1.1429083693
 H        -6.2564975365       14.4221703165       -2.4321394884
 H        -8.5062147026       14.2822232201       -1.6544687417
 H        -9.1862745479       12.6365943001       -1.2180141567
 H        -8.4409433582       12.9172578756       -2.8375264626
 H       -10.1603496063        6.5138996963        1.6203006936
 H       -10.4433174873        7.9360724106        0.7723987161
 H        -8.8269625611        7.8062887788        1.6003117018
 H        -7.3875660285        5.4580286357       -0.8594672707
 H        -7.9557952641        4.9309672676        0.6181317340
 H        -6.9448151851        6.5575757602        0.4105229937
 H        -9.5825907568        3.1840009418       -4.8753357604
 H        -8.6037053331        1.9152056954       -4.7582519266
 H        -7.9835384119        3.3353083792       -3.9753624096
 H       -11.0114714718        0.4626205138       -2.6829761556
 H        -9.5663293661        0.0941638343       -3.7989820485
 H       -10.7734708645        0.9486178962       -4.3659104955
 H        -6.1374656943       -2.5293948603        1.5032184857
 H        -4.6069970898       -2.0190624532        0.9285474277
 H        -5.5415679084       -3.3550172147        0.1748530550
 H        -5.6636231115       -0.6715742932       -2.4225021475
 H        -4.6418277630       -1.9334610878       -1.5479615488
 H        -4.4988061648       -0.3936860753       -1.0523136557
 H       -11.8818424490       -4.1889518435        0.8824819280
 H       -13.4425000939       -4.1168054132        0.1401972157
 H       -12.8314256159       -3.3019736737        1.7380500371
 H       -12.8212256852       -1.3586953491       -2.0635718683
 H       -13.0394889649       -3.0514907633       -2.0230455629
 H       -11.3732416827       -2.4935419701       -2.1786003800
 H       -16.7690384075        3.4491815679        3.3262859938
 H       -16.7514059980        2.4960861820        1.7335861962
 H       -16.0695473782        4.0612558317        1.9115041140
 H       -14.2934837102        4.6643221794        3.5908591304
 H       -13.8398614033        4.0843117134        2.0222344953
 H       -12.9207301394        3.5285353257        3.4907660141
 Na      -10.9511477810        1.0550447950        0.5642732976
