117

 C       -15.4105097607        2.0743284091        5.8921340700
 C       -15.1712494388        1.4040978264        4.4884521769
 O       -15.2907463776        0.2111347825        4.3191508406
 C       -14.9853689868        2.5045430418        3.2489334373
 C       -14.1963798698        1.6732643739        2.0477934718
 O       -13.0844580933        1.8807548606        1.7172662277
 C       -15.0863755970        0.6982631420        1.2626601265
 C       -14.4494578978       -0.6241387018        1.1130759399
 C       -13.3682087543       -0.9194690555        0.0426710321
 O       -13.3281256979       -0.2302269042       -1.0291873219
 C       -12.6612587993       -2.2960700504       -0.1395523506
 C       -11.1230498349       -1.9271983470       -0.0851139572
 O       -10.8877131881       -0.7757480677        0.3361319737
 C        -9.9838701315       -2.9333930904       -0.2306575473
 C        -8.6094459513       -2.6266431494        0.3690398571
 C        -7.4353835641       -2.3562744385       -0.5668831237
 O        -7.5337808761       -2.7041673577       -1.7204518153
 C        -6.3407434454       -1.3859973301       -0.0569066565
 C        -7.0543123455        0.0278302113        0.2333360564
 O        -7.8967201363        0.2101179246        1.0418656221
 C        -6.4104371135        1.2058221047       -0.5499548785
 C        -7.1441778402        1.4101683824       -1.9678265878
 C        -8.6070340181        1.7917004659       -1.7223453321
 O        -8.9393395842        2.2113702793       -0.6493588755
 C        -9.5442330180        1.6939802100       -2.9423561865
 C       -10.6618123147        2.6492277648       -2.7076697271
 O       -11.5106448710        2.3363042978       -1.9416925863
 C       -10.6648511390        4.1992424194       -2.9183814291
 C        -9.5051668590        5.1869510442       -2.5542414729
 C        -9.8685679793        5.9641761088       -1.2337418711
 O       -10.9698066818        5.8974335603       -0.8586118227
 C        -8.7339059158        6.8714233056       -0.3627247223
 C        -8.1672555320        8.0074819893       -1.3323565099
 O        -8.6268002471        8.2093879299       -2.3857037869
 C        -7.2740111169        8.9581903655       -0.5399452433
 C        -7.6910750974       10.4356231580       -0.6274939310
 C        -6.5249388421       11.2436120429       -1.1619536034
 O        -5.4811292630       10.7980233443       -1.5693955452
 C        -6.7137678328       12.8430245721       -1.4237256588
 C        -7.1182172393       13.4637114137       -0.0099871644
 O        -7.3384598583       12.7927075147        1.0007837303
 C        -7.0913460153       14.9773349041       -0.1617956386
 C        -5.3255816801       13.4124069684       -1.8446403060
 C        -7.8507833258       13.1086633677       -2.3927481670
 C        -9.6494858307        7.6050553216        0.6362923775
 C        -7.7961754485        5.8799922716        0.2462612574
 C        -8.7045457717        2.0625172843       -4.2054774868
 C       -10.2448687401        0.2187554091       -3.1241793056
 C        -5.6784877785       -1.6547904526        1.3323127805
 C        -5.1623033303       -1.2933643931       -1.0258041927
 C       -12.8315565146       -3.2380573813        1.1240308812
 C       -13.2496208688       -2.8614192232       -1.4155763906
 C       -16.2557168049        3.1850454153        2.7122037347
 C       -13.9389276570        3.5842904391        3.5570253456
 H       -14.7724672124        2.8703155597        6.1849069703
 H       -15.3009753954        1.3317443732        6.6912888997
 H       -16.4123099464        2.5302782807        5.9937494196
 H       -15.3167936599        1.2035229374        0.2840879367
 H       -16.0518675079        0.6860203477        1.7200038793
 H       -15.1565947440       -1.4598421010        1.0641016915
 H       -14.0379414514       -0.8133705690        2.0687977552
 H        -9.9324271739       -3.3914934764       -1.2561817939
 H       -10.1940740569       -3.8954519349        0.2989899461
 H        -8.3439730655       -3.5766519122        0.9394400105
 H        -8.7119215979       -1.8658207301        1.0534546917
 H        -5.2483498438        1.1780233064       -0.6045048244
 H        -6.5088621681        2.1127783472        0.0616086527
 H        -7.0581061177        0.4638827530       -2.5434187145
 H        -6.5164805941        2.1447036649       -2.4254242331
 H       -11.3823145414        4.5592345451       -2.1727824341
 H       -11.0161221330        4.2454758160       -3.9669691643
 H        -9.6634108472        5.8413943169       -3.4310051151
 H        -8.5453110792        4.6016648255       -2.4144933156
 H        -6.2147070455        9.0662333272       -1.0804749785
 H        -7.1154320109        8.7082234584        0.5471719070
 H        -7.9057941541       10.9175411041        0.3590124485
 H        -8.6088416328       10.7376893713       -1.2376927496
 H        -7.5156365256       15.5790521262        0.5872379133
 H        -7.5278834927       15.3010034253       -1.1417318623
 H        -6.0303662901       15.2662119365       -0.1236162574
 H        -5.1028152668       13.4304015521       -2.8779861723
 H        -4.5011727224       12.7351910135       -1.4342443062
 H        -5.3382788470       14.4108438034       -1.3218074499
 H        -7.8955109769       14.1664404315       -2.4414031501
 H        -8.8299280201       12.7207688674       -2.2396891774
 H        -7.7203430626       12.6703246566       -3.3947864813
 H        -9.5776752330        6.9415185691        1.4920749429
 H       -10.7702745500        7.6416269785        0.3321745033
 H        -9.3527386366        8.6782141104        0.8017065580
 H        -7.3265938357        5.3515448219       -0.4786660462
 H        -8.3644246766        5.1879326156        0.8136784272
 H        -7.1658344593        6.4814390003        0.9678599307
 H        -9.2282422667        1.9455322117       -5.1293197683
 H        -7.9590787357        1.3693022592       -4.3544927451
 H        -8.2101417562        3.0896347439       -4.0999972390
 H       -11.0568307912        0.1615148419       -2.2962976093
 H        -9.5068804690       -0.6745341157       -3.0884181654
 H       -10.8929975894        0.1101756658       -3.9931881946
 H        -6.4414056838       -1.9504848947        2.0753741442
 H        -5.2243758297       -0.8583184075        1.8065034701
 H        -4.9790692177       -2.4776872431        1.2833886904
 H        -5.4709466493       -0.7076372448       -1.9149054187
 H        -4.7163420584       -2.2994997741       -1.2763609427
 H        -4.3703205201       -0.7101467743       -0.5678127376
 H       -12.1878330324       -4.1481348393        1.0026761064
 H       -13.8878708678       -3.4265494727        1.3153988070
 H       -12.4206571450       -2.6851107257        2.0072943374
 H       -13.4934519308       -1.9706729542       -2.1058729598
 H       -14.1598578353       -3.4239859013       -1.1908445518
 H       -12.5340552121       -3.5191018007       -1.9564252948
 H       -17.0107667634        2.7374537473        3.3411794764
 H       -16.4524230835        2.9990117528        1.6856328357
 H       -16.2442557832        4.2674360566        2.8918982632
 H       -14.0740986561        4.2101477478        4.3994177978
 H       -13.9872002867        4.1726386843        2.6520296161
 H       -12.9365715508        2.9685009732        3.5200448941
 Na      -11.3845468604        1.4180215531       -0.0855648442
