117

 C       -15.5524772780        1.4584274612        5.7811586847
 C       -15.1073058755        1.1437321283        4.2251193189
 O       -15.2695456704        0.0161380604        3.8225220530
 C       -14.7323073861        2.4595912256        3.2780161752
 C       -14.1995648149        2.0400445339        1.9564201802
 O       -13.1483757911        2.3114979134        1.4804006288
 C       -15.0961755194        1.0223879360        1.2458031470
 C       -14.6015936243       -0.4174828278        1.3062477819
 C       -13.7838527348       -0.7783388423        0.0580284289
 O       -13.5870230119       -0.1288093853       -0.9684337964
 C       -12.9396447779       -2.2146279508        0.2317957013
 C       -11.3660803634       -1.8810212480        0.1177185367
 O       -11.0212394815       -0.7207277656        0.0220268845
 C       -10.3586452983       -2.9138512935        0.2883447326
 C        -9.1382189542       -2.5128294651        1.1852953954
 C        -7.8356920913       -2.4965473675        0.4575033670
 O        -7.6540867937       -3.1532150534       -0.5694139124
 C        -6.5751713129       -1.5753469259        0.8527115499
 C        -7.0815954612       -0.1178629652        0.6987542003
 O        -7.9759033711        0.3410873386        1.3690517136
 C        -6.4207663334        0.9720046984       -0.2389415301
 C        -7.2875652095        1.4384266807       -1.5713940425
 C        -8.7184445606        1.5361871949       -1.5825162835
 O        -9.5200910051        1.5241337879       -0.6982822716
 C        -9.3327356378        1.8509219460       -3.0762121472
 C       -10.2306226710        3.1787706614       -2.9387387949
 O       -11.1642291817        3.1483244051       -2.1826567917
 C        -9.8245968156        4.5334778134       -3.6266772255
 C        -8.8187357353        5.3773055264       -2.9616543326
 C        -9.5796997806        6.1453986264       -1.7258859832
 O       -10.7600721596        6.2235273960       -1.6786893072
 C        -8.7937166312        6.8886749757       -0.4114815668
 C        -8.3040160105        8.0528918840       -1.2384450811
 O        -8.8412577762        8.3649782149       -2.2608712574
 C        -7.1371818114        8.8953231354       -0.7319666567
 C        -7.4514837431       10.3587024991       -1.0535845194
 C        -6.1518623094       11.1677559069       -1.5363498720
 O        -5.2346338356       10.4711995892       -1.9282242412
 C        -6.1133247723       12.7503905778       -1.7440641404
 C        -6.8433874442       13.4914791149       -0.6664167275
 O        -7.5465316534       12.8734432863        0.1279978876
 C        -6.9145207349       14.9892046361       -0.7095460524
 C        -4.7217555014       12.9125965093       -2.4628000787
 C        -7.1633067185       12.9037115542       -2.9911824438
 C        -9.8396309474        7.4861784070        0.5056055484
 C        -7.7393969144        6.0821902827        0.3279681451
 C        -8.2634273992        2.1405876712       -4.1598175798
 C       -10.3047467216        0.8490982463       -3.8192210233
 C        -6.2441458024       -2.1179189226        2.2915010588
 C        -5.3936736203       -1.9571238020       -0.0121147300
 C       -13.1566583615       -2.8944219940        1.7171744847
 C       -13.5061069848       -3.1981839295       -0.7495007037
 C       -15.9920154016        3.4134598982        3.2416349589
 C       -13.6992189284        3.2143379892        4.1160415871
 H       -14.7418040560        1.1797821060        6.4366540812
 H       -16.5051852930        0.8779072514        5.9746643281
 H       -15.7213091230        2.5321602937        6.0298286509
 H       -15.3820953770        1.3759366889        0.2325096699
 H       -15.9739404207        1.0725370755        1.7311972908
 H       -15.4299620829       -1.1499085409        1.4802392047
 H       -13.8101336161       -0.4809105093        2.0492574061
 H       -10.0126599563       -3.0234470174       -0.7237457833
 H       -10.6866752776       -3.8696383580        0.6406677885
 H        -9.0196406362       -3.2772380049        2.0309887161
 H        -9.4219042178       -1.5764329450        1.6740445801
 H        -5.4395760268        0.6255790403       -0.5676883477
 H        -6.4365301830        1.8583612383        0.3164792070
 H        -7.0240055052        0.6074068175       -2.3366974214
 H        -6.8035242402        2.3999697572       -1.8450722870
 H       -10.7340428427        5.1148276715       -3.6829765003
 H        -9.3881869205        4.4492526624       -4.6643090878
 H        -8.6601087774        6.2438310894       -3.5041524556
 H        -7.8191596488        5.1227558784       -2.5225259616
 H        -6.2414989151        8.6066650894       -1.2379443930
 H        -6.8288437033        8.8574632247        0.2629347253
 H        -8.0452326969       10.7981625981       -0.2596910357
 H        -8.1755335310       10.2931179361       -1.8072642365
 H        -7.8917361760       15.4146516930       -0.8873018310
 H        -6.0828486005       15.4499666566       -1.3431234187
 H        -6.7783492960       15.4442149569        0.3081493511
 H        -4.7667763449       12.6381465972       -3.3974370756
 H        -4.0565225120       12.4384845415       -1.7508912744
 H        -4.3696242128       13.9831552516       -2.6417712516
 H        -7.5124846235       13.9114987254       -3.2690471790
 H        -8.1249043451       12.3861419408       -2.8095321152
 H        -6.6948511948       12.7284384227       -3.9758736514
 H       -10.2260996656        6.7302883251        1.1115714153
 H       -10.6055953329        8.0659850470       -0.1127604904
 H        -9.3633550554        8.1014028306        1.2466761052
 H        -7.1817729283        5.4055058174       -0.3068274376
 H        -8.2906147919        5.5152259776        1.1567253637
 H        -6.8276880950        6.7124873393        0.7539374995
 H        -8.6452993987        2.8954296832       -4.8510601154
 H        -7.9910882533        1.1845451324       -4.5361255144
 H        -7.3092359546        2.6068692172       -3.8085831084
 H       -11.1396087902        0.5434132987       -3.1847513357
 H        -9.9143664317       -0.0967996003       -4.1418796158
 H       -10.6809386534        1.4207098089       -4.6256367272
 H        -6.0938788731       -1.2431853347        2.9686733745
 H        -5.4290536216       -2.8169528812        2.3086193595
 H        -7.1540488173       -2.5915011512        2.7235377648
 H        -5.6250922600       -1.7838211076       -1.0532888011
 H        -5.2258404979       -3.0804525512        0.0818732097
 H        -4.5298164636       -1.3968657734        0.2622759640
 H       -12.8174301538       -3.9257039891        1.5933392140
 H       -14.2141761116       -2.9524913607        2.0293424949
 H       -12.6531551537       -2.2178379969        2.4148231642
 H       -13.9802703934       -2.7104925143       -1.6153260661
 H       -14.2209618093       -3.8659762515       -0.2966393992
 H       -12.7131712753       -3.7701516869       -1.1523652758
 H       -16.7155230624        3.1203406096        2.4731471350
 H       -15.6346853566        4.3436326418        2.8412231068
 H       -16.6271659785        3.5954506155        4.1838592015
 H       -13.9597529485        3.2369799725        5.1376011108
 H       -13.5521005043        4.2032839241        3.7797635106
 H       -12.6786450449        2.7016899053        4.0280182890
 Na      -12.0026945390        1.5311950496       -0.6330053427
