117

 C       -15.6329249957        1.5974848806        5.8145041047
 C       -15.0620330467        1.2573451802        4.4425259526
 O       -15.3873412297        0.2373222932        3.8784671058
 C       -14.5643657600        2.4636028399        3.3716867737
 C       -14.2825023092        1.9977806796        1.9048600548
 O       -13.2370700154        2.4827854134        1.3327383119
 C       -15.3209169419        1.1147377047        1.0095974838
 C       -14.9566573324       -0.3840052825        1.0081202232
 C       -13.8478082408       -0.8883603265       -0.0651210065
 O       -13.5315760451       -0.1222694360       -0.9415529594
 C       -12.9719360298       -2.1521011900        0.3465859361
 C       -11.4424001509       -1.8596027599        0.2978031204
 O       -10.9437144852       -0.7300292712        0.1730151604
 C       -10.4701914504       -3.0339713686        0.4592787241
 C        -9.1915841947       -2.6599538327        1.3451696198
 C        -7.8952787182       -2.5935316290        0.4692760497
 O        -7.8840687929       -3.0773902745       -0.6161315805
 C        -6.8085481032       -1.5484769525        0.9928228082
 C        -7.4166312584       -0.1265725024        0.9966890550
 O        -8.2214105468        0.2098918727        1.8335645977
 C        -6.8838644571        0.8891744350       -0.0495795858
 C        -7.1794196132        0.7430887908       -1.5039380253
 C        -8.6456874425        1.2996873762       -1.7794089167
 O        -9.4908756738        0.8400367853       -0.9814760960
 C        -9.2293992271        2.0304998127       -2.9428027739
 C       -10.1819586736        3.2700134853       -2.8295391272
 O       -11.1021844381        3.2212965510       -2.0292818763
 C        -9.8546455713        4.5392134782       -3.6722634875
 C        -8.8620252282        5.4254418548       -2.9065559212
 C        -9.6825079171        6.0767219122       -1.5770535223
 O       -10.8717996519        5.9507856488       -1.5271641151
 C        -8.8548378773        6.9298321645       -0.6392180564
 C        -8.3957566047        8.2219439853       -1.3168034037
 O        -8.6599321328        8.4895673896       -2.4878301895
 C        -7.3891319110        8.9968018046       -0.7154467539
 C        -7.3027903479       10.4731936571       -1.2991895453
 C        -6.0291597345       10.9572508626       -1.8059843537
 O        -4.9810869409       10.3671917515       -1.6390582718
 C        -6.1760925485       12.6788565995       -2.2252918089
 C        -6.8105326805       13.4671310444       -0.9291591258
 O        -7.1980366096       13.0271868381        0.1433297037
 C        -6.5938270004       14.9718712735       -1.0224925373
 C        -4.6867754099       13.2222980853       -2.2453554747
 C        -7.1230319181       12.7595621924       -3.3537226593
 C        -9.9230033174        7.4255743341        0.4427813503
 C        -7.6651474325        6.0902652841        0.0370389670
 C        -8.0630414151        2.2865476483       -4.0666606108
 C       -10.2810580068        1.0590165363       -3.6115589048
 C        -6.4399080292       -1.6441222177        2.4558205412
 C        -5.4412248239       -1.7153424402        0.1504058788
 C       -13.3299330719       -2.7267036983        1.6813507434
 C       -13.2309706236       -3.1511596113       -0.8755733895
 C       -15.7212712498        3.4096989196        3.3582751369
 C       -13.2490390525        3.0704466889        3.9066321307
 H       -15.1862042562        1.0666975690        6.6813096532
 H       -16.6840324752        1.5122689034        5.6072657058
 H       -15.5004394052        2.6542524375        5.9879497286
 H       -15.1834414099        1.4328620100        0.0076943116
 H       -16.4858783171        1.4395235269        1.2240493036
 H       -15.8158439645       -1.0343121457        0.9144122173
 H       -14.4441977207       -0.5485018506        1.9815059731
 H       -10.1124595385       -3.5177190031       -0.5475440445
 H       -10.8988919582       -3.8002863758        1.1892468189
 H        -9.1815851167       -3.3973686609        2.1042346351
 H        -9.4854786499       -1.7320802779        1.9049561069
 H        -5.7781045780        0.7695409030        0.0528371171
 H        -7.3184224185        1.9427390490        0.1934595407
 H        -7.0838518813       -0.2938663785       -1.5971121902
 H        -6.3708936553        1.1716326781       -2.0724776944
 H       -10.7555826321        5.1687068340       -3.7793263749
 H        -9.5988629692        4.2837923237       -4.7108570641
 H        -8.3885279098        6.4036111563       -3.3551070759
 H        -7.9660812470        5.0333379272       -2.4294224976
 H        -6.4120737601        8.5741195485       -0.9799929640
 H        -7.3280627581        8.9783270105        0.4031802884
 H        -7.4751516594       11.2707207534       -0.5327881430
 H        -8.1491150866       10.6396159909       -2.0339990800
 H        -6.9359451361       15.3727690507       -1.9715707765
 H        -5.5802505254       15.1708450725       -0.8335364139
 H        -7.1728785651       15.5477462415       -0.3879895058
 H        -4.2478351153       13.0432393669       -3.3236010176
 H        -4.1352771825       12.8641435272       -1.3155621371
 H        -4.6127345136       14.2994381516       -2.2881733059
 H        -7.0050175227       13.5670887282       -4.0213269339
 H        -8.1293214471       12.8177156544       -3.0486204190
 H        -6.9883497763       12.0925941739       -4.1328175416
 H        -9.8211711372        6.7472337882        1.3706987597
 H       -10.9293153657        7.3614085496        0.1006242078
 H        -9.5918204689        8.3428513758        0.9914886553
 H        -6.8639338329        5.6104705957       -0.5533512895
 H        -8.1890184855        5.3837023691        0.5996649050
 H        -7.0567340625        6.7142378894        0.6078354733
 H        -8.6841923294        2.3130456059       -4.9027980958
 H        -7.2908676824        1.5248648365       -3.9934767780
 H        -7.6458658645        3.3323784552       -4.1270548219
 H       -10.9122676973        0.6688028684       -2.7407534026
 H        -9.9619324532        0.0430480101       -4.0296947760
 H       -10.8686399165        1.6152885348       -4.3843515797
 H        -5.4810071354       -1.1480764605        2.6503145108
 H        -6.3159656939       -2.7665903948        2.6494759583
 H        -7.1774326314       -1.1746261074        3.1216875432
 H        -5.5611707179       -1.2630719196       -0.8922632081
 H        -5.1669914014       -2.7162166871       -0.0058846899
 H        -4.6305239677       -1.2519035568        0.7848085639
 H       -12.7276071618       -3.6191135109        1.8298617372
 H       -14.3774427114       -3.0427130426        1.6264114173
 H       -13.0688994829       -1.9083566806        2.4439118915
 H       -13.5215936557       -2.5310662368       -1.7194716216
 H       -14.0363107486       -3.8231848061       -0.7311545115
 H       -12.3021239153       -3.6788001479       -1.1592942564
 H       -16.6769840327        2.9615036399        3.7249081750
 H       -16.0672206413        3.9362534153        2.4090536563
 H       -15.5822988802        4.0575721730        4.1230074076
 H       -13.3300508985        3.4354109018        4.9768314143
 H       -12.7424231583        3.8988963623        3.3308270075
 H       -12.6069858316        2.2374699542        4.0221515830
 Na      -11.7899069940        1.3626363840       -0.6121400909
