117

 C       -15.4903722803        1.7483406060        5.7817786818
 C       -15.1864551411        1.3532636768        4.2788238992
 O       -15.3473146152        0.1955277308        3.9638319834
 C       -14.5750023311        2.4399144627        3.3919674148
 C       -14.2670320618        1.9136761822        1.7603523581
 O       -13.2355510572        2.3308200682        1.2256436722
 C       -15.2344637431        1.1315329611        0.9704805536
 C       -15.1165949819       -0.3563774439        0.8642011569
 C       -13.8334701246       -0.7464078721        0.0595354496
 O       -13.6328623692       -0.1984523910       -0.9813791777
 C       -13.0514044945       -2.1196953306        0.3823934957
 C       -11.3667261175       -1.8801817394        0.4611585052
 O       -10.8327142663       -0.8036252108        0.3816918492
 C       -10.4803334064       -3.1070402917        0.6362768016
 C        -9.1999976873       -2.6738426423        1.4216164938
 C        -8.0230920073       -2.4481248869        0.4735355901
 O        -7.8409543842       -2.9786921504       -0.6360126285
 C        -6.9407733090       -1.5045469485        1.1127228302
 C        -7.6498863984       -0.0978666797        1.0606342309
 O        -8.4026231174        0.2249941123        1.9429603514
 C        -7.0779173008        0.9985011108        0.0720433807
 C        -7.2535468339        0.5809240001       -1.4467679304
 C        -8.6002749044        1.0245636102       -1.7890885300
 O        -9.4361805385        0.6841393943       -0.9807296532
 C        -9.1466528737        1.9653731816       -3.0742428315
 C       -10.0216269075        3.2245201113       -2.7195718716
 O       -10.9550872623        3.2472032776       -1.9523153356
 C        -9.9014689088        4.4658746653       -3.5837994296
 C        -9.0447203339        5.3491833393       -2.8125556240
 C        -9.8271712192        6.0548468579       -1.6469640453
 O       -10.9286070095        5.7511200624       -1.4273187364
 C        -9.0076844110        6.9719940936       -0.6521878476
 C        -8.3547140993        8.2112606260       -1.4898260729
 O        -8.7196832654        8.3067235647       -2.6126359366
 C        -7.3415805193        9.0856816476       -0.6537300690
 C        -7.3296856834       10.5663326308       -1.2533962231
 C        -5.9468628984       11.1244706354       -1.6150351472
 O        -4.8835079390       10.5306592219       -1.6744355958
 C        -6.0717121790       12.5948331927       -2.1748641271
 C        -6.5931206612       13.5508785968       -1.0030728695
 O        -7.0147517077       13.0741058014        0.0473282379
 C        -6.5810150276       15.1110121969       -1.1402751608
 C        -4.6779067582       13.1532416295       -2.4384326225
 C        -6.8997869319       12.7197559455       -3.4881690264
 C        -9.8436771022        7.4650270438        0.5982354036
 C        -7.7690274400        6.2133609475       -0.2376213798
 C        -8.0773726469        2.3473146769       -4.1482469887
 C       -10.1771390229        1.0040065056       -3.7567617105
 C        -6.5281228007       -1.7108648424        2.5885386625
 C        -5.6523265788       -1.6704406530        0.1995827492
 C       -13.4751743273       -2.8747301997        1.6384834136
 C       -13.1888517224       -3.0665156560       -0.8673908000
 C       -15.6063795158        3.6134689461        3.2921201324
 C       -13.1464883816        2.9249453873        3.8709017919
 H       -15.0618290671        0.9008446975        6.2503938469
 H       -16.5820628434        1.8897213974        5.8648706940
 H       -15.0596773401        2.6078037174        6.2595846453
 H       -15.1913252244        1.5544167624       -0.1001349987
 H       -16.2053626812        1.4552868089        1.3417466376
 H       -15.8850317433       -0.7151312353        0.2291199809
 H       -15.1470449993       -0.7629075506        1.8772942338
 H        -9.9989406464       -3.3367678064       -0.3425318398
 H       -10.9136871767       -3.9858286204        1.0870281199
 H        -8.9684649754       -3.3432470926        2.1713076371
 H        -9.4416963568       -1.7394118853        1.9441501028
 H        -6.0485151812        1.0587686465        0.3234728248
 H        -7.6466666555        1.9613468300        0.1923084698
 H        -7.0967274558       -0.5151395416       -1.3297410061
 H        -6.4505853660        0.8787491529       -2.1104289232
 H       -10.7958370081        4.9191055212       -3.9321684922
 H        -9.3471412577        4.2466737202       -4.5870670815
 H        -8.6452266221        6.1306357734       -3.3469905945
 H        -8.0549009377        4.9309547998       -2.4634976121
 H        -6.2345374266        8.8660217819       -0.4666591635
 H        -7.7592522079        9.1137356203        0.4098331944
 H        -8.0109491538       11.3834328243       -0.7512048592
 H        -7.8298087738       10.4315658499       -2.2602167133
 H        -6.3061641750       15.5111766707       -2.0703620757
 H        -5.9750941411       15.5613586435       -0.3154840756
 H        -7.5847138478       15.4643988865       -1.0415891220
 H        -4.2690460107       12.4717441890       -3.0325152188
 H        -4.0310413213       13.3748975189       -1.5100631094
 H        -4.6968469829       14.0597968560       -3.0815911821
 H        -6.4097606319       13.3574440661       -4.1793084466
 H        -7.9179847960       13.0788097724       -3.4554289216
 H        -6.9175136016       11.9158368388       -4.1642897301
 H        -9.8650055828        6.8652654997        1.5063735999
 H       -10.9470731360        7.5945790764        0.3573429229
 H        -9.2818380008        8.3507023374        1.0325060807
 H        -7.1070169643        6.2274093289       -0.9995141675
 H        -7.9578089390        5.2051772682       -0.1431469374
 H        -7.0915960805        6.6673726677        0.5148634855
 H        -8.6028483933        2.5167102432       -5.0826500832
 H        -7.3816464180        1.5547822800       -4.1331231575
 H        -7.6025564048        3.3865804363       -3.9438525142
 H       -10.8450904523        0.7048606551       -2.8634241876
 H        -9.7434663864       -0.0438309596       -3.8749536872
 H       -10.6295410054        1.2888492457       -4.6925460927
 H        -5.4989298858       -1.4124435723        2.7259078524
 H        -6.5923173702       -2.7715302886        2.8303828068
 H        -7.1584661742       -1.0742337939        3.2233102307
 H        -5.8521776098       -1.6386120501       -0.9059665028
 H        -5.3544356925       -2.7108111041        0.3757428297
 H        -4.8272663779       -1.1582653717        0.5857863977
 H       -13.0233115196       -3.8396797389        1.7577703094
 H       -14.5588580501       -2.9432763220        1.6188835853
 H       -13.0457492270       -2.1576744377        2.4071271315
 H       -13.0482699360       -2.5220607359       -1.8732358311
 H       -14.1958427001       -3.4187199712       -0.9288397148
 H       -12.4707403253       -3.9129452460       -0.7625086005
 H       -16.5353296178        3.4541291890        3.7553950881
 H       -15.8669810667        3.8743538043        2.2915386993
 H       -15.2739819335        4.4482095437        3.8983589372
 H       -13.1728068791        3.4186637390        4.7948039030
 H       -12.6981112036        3.6424265732        3.1786602710
 H       -12.4637080305        2.0230073727        4.1063988781
 Na      -11.7585679349        1.5059129809       -0.5267578895
