117

 C       -15.3414059220        1.8572924650        5.6700591420
 C       -15.1433870610        1.3168362896        4.2192366563
 O       -15.3243629643        0.1447063852        3.9156614245
 C       -14.4745393044        2.4496870523        3.2253848579
 C       -14.2475836344        1.9287135779        1.7022886007
 O       -13.1726791382        2.1391129471        1.2901596870
 C       -15.3494955927        1.1916924545        0.9588391610
 C       -15.1165497165       -0.4267066104        0.7951207311
 C       -13.8313819815       -0.8105078984        0.0673266045
 O       -13.5319652572       -0.1609836670       -0.9476042006
 C       -12.9968328101       -2.1072452550        0.4044394290
 C       -11.4142083062       -1.8931451537        0.5803443972
 O       -11.0644656770       -0.7471994628        0.6082941512
 C       -10.5933704544       -3.1608780708        0.7774435593
 C        -9.2107348515       -2.8185946302        1.4555767506
 C        -8.0652948490       -2.3679564671        0.6427306350
 O        -7.9606629595       -2.8275964277       -0.5019287698
 C        -6.9463595572       -1.4569266377        1.2210905578
 C        -7.5993140223        0.0853207950        1.1627336090
 O        -8.5621989992        0.2577564197        1.8877838539
 C        -7.0618244272        1.0572713875        0.1468651177
 C        -7.3107718872        0.6659712670       -1.4860809195
 C        -8.7392337624        1.0632093356       -1.7920213390
 O        -9.6614377609        0.7220455387       -1.0997746874
 C        -9.1311659503        1.7105668502       -3.1918280852
 C       -10.0457543314        3.0431476475       -2.7312975021
 O       -10.7616248049        2.9983234630       -1.7689868314
 C        -9.9481684489        4.4305315604       -3.4866140071
 C        -9.1060272531        5.5345627484       -2.7893340288
 C        -9.9128569570        6.0752574413       -1.5282815210
 O       -11.0960769564        5.6633533641       -1.3240785740
 C        -8.9845851173        6.9824026440       -0.6528975843
 C        -8.5278042627        8.2892367373       -1.4828002185
 O        -8.5759208371        8.3469117891       -2.7113936949
 C        -7.4577972833        9.1415346115       -0.8009219032
 C        -7.3802244705       10.5720675900       -1.4078899957
 C        -5.9612786356       11.3198550437       -1.6066257025
 O        -4.9643253138       10.6597566898       -1.5952604924
 C        -5.8453763376       12.7470733778       -2.1606127680
 C        -6.4973792349       13.6788435398       -1.0265924237
 O        -6.8633126940       13.1195634838       -0.0251357453
 C        -6.6130838810       15.1496764411       -1.3159484214
 C        -4.3988610022       13.0878735138       -2.6314606802
 C        -6.7494646370       12.6778443309       -3.4575257207
 C        -9.7152114880        7.4129587736        0.5838296565
 C        -7.7173697465        6.1786615323       -0.2497280317
 C        -7.9461749038        2.1758489922       -4.0677727800
 C       -10.1110620654        0.8330733798       -3.9655968830
 C        -6.6859935848       -1.9275745628        2.6451522951
 C        -5.7374868961       -1.6041549513        0.2896135655
 C       -13.6081474639       -2.9259944345        1.6243305840
 C       -13.1789663143       -2.9751636407       -0.8766531837
 C       -15.3824045736        3.8151579895        3.1144327249
 C       -13.1587909868        2.7798808979        3.8243797411
 H       -15.0474595795        1.0445656791        6.3138948671
 H       -16.3191508461        2.3320377030        5.7650271547
 H       -14.6557014337        2.6713408435        5.9536607954
 H       -15.4687735225        1.7071473660       -0.0467619546
 H       -16.2159685475        1.3340941989        1.4582754196
 H       -15.9041728926       -0.7913203355        0.1173414762
 H       -15.1876539416       -0.8394253722        1.7734142992
 H       -10.2427741066       -3.4774444795       -0.1311295052
 H       -11.0940017099       -3.8972553924        1.3286029554
 H        -8.9106454827       -3.6945904630        2.1059924034
 H        -9.3907862819       -2.0540343237        2.1458384792
 H        -6.0218461871        1.2893799359        0.4008520651
 H        -7.5926120982        1.9314791539        0.1508720121
 H        -6.9325823380       -0.3760016168       -1.7591609251
 H        -6.5841716562        1.3242070779       -2.0381822150
 H       -10.9673395802        4.8461630733       -3.7097097230
 H        -9.6259635736        4.3036222549       -4.5184831142
 H        -8.8208318523        6.4075979623       -3.3822978226
 H        -8.0660346525        5.2659711676       -2.5009421162
 H        -6.4418745578        8.6374748069       -0.9500182193
 H        -7.4917053687        9.2675437427        0.2836124114
 H        -7.9822977054       11.1898950104       -0.6978930874
 H        -7.9982173481       10.5665719441       -2.3109951884
 H        -5.7601841278       15.5136340591       -1.9452479102
 H        -6.5962612474       15.6462268975       -0.3300284794
 H        -7.5438826934       15.4705891175       -1.8795504280
 H        -3.9733010594       12.0445763578       -2.8008364268
 H        -3.7767083614       13.5567638097       -1.9430926322
 H        -4.3023622120       13.6697033092       -3.5732928190
 H        -6.4238670202       13.1774711788       -4.3776790432
 H        -7.8260620675       12.8612487564       -3.4345115808
 H        -6.7355470281       11.6335916270       -3.9338055609
 H       -10.0547791653        6.6548788721        1.2618176115
 H       -10.7427500635        7.7134409434        0.1774481848
 H        -9.2010012686        8.1096469678        1.2005684396
 H        -6.9079577823        6.3517626807       -1.0124824130
 H        -7.8038018795        5.1043059908       -0.4264048161
 H        -7.1687044569        6.4829875455        0.6114791047
 H        -8.1799540650        2.7907592374       -4.9951628220
 H        -7.3419211874        1.2448067850       -4.2498587480
 H        -7.4499659133        2.8342411314       -3.4269587049
 H       -10.9183001424        0.5362870858       -3.3976593827
 H        -9.6588151723       -0.1347371819       -4.1935883567
 H       -10.2748906020        1.2763727026       -4.9807507554
 H        -5.6996907268       -1.6120083468        2.9866671653
 H        -6.7011782172       -2.9674773933        2.6902805547
 H        -7.4589240547       -1.4400694805        3.2567259253
 H        -6.0570453146       -1.9406471723       -0.6134587330
 H        -5.0481221223       -2.4054783762        0.7511067516
 H        -5.0562200333       -0.7946424024        0.3443364407
 H       -13.2646860076       -3.9963052464        1.6730070795
 H       -14.6503890849       -2.8798990459        1.3487931518
 H       -13.3424059966       -2.4926063103        2.5415650509
 H       -12.7088584864       -2.6815049161       -1.8079942694
 H       -14.3012489226       -2.8027119300       -1.0904049611
 H       -13.0100239597       -4.0319486647       -0.6511689997
 H       -16.2867228959        3.7987065548        3.6530301330
 H       -15.6892208424        4.0040964193        2.1569468066
 H       -14.9290770054        4.7163831681        3.6297916629
 H       -13.4290302180        3.3471036965        4.7043487357
 H       -12.6215634415        3.4995242185        3.2783033136
 H       -12.5189100224        1.9864189140        4.2210332232
 Na      -11.7422683803        1.5404239860       -0.4238000062
