117

 C       -15.5406399714        2.0288161609        5.5074314632
 C       -14.9097066625        1.4974696758        4.1029276303
 O       -15.3153405977        0.4295429058        3.6985722329
 C       -14.1998001789        2.4900718213        3.0425392780
 C       -14.0030951077        1.7728596463        1.7205393693
 O       -12.8652148034        1.7274167297        1.3309969082
 C       -15.2174622888        1.1570640460        0.9827253822
 C       -15.1892381068       -0.4040688700        0.8694101823
 C       -13.8659340350       -0.7475776783        0.0868254345
 O       -13.5506536304       -0.0983205811       -0.8791189036
 C       -13.1713101942       -2.1661532522        0.3476388367
 C       -11.7463475369       -1.9469376047        0.9100946459
 O       -11.4597378198       -0.9255039002        1.4847696441
 C       -10.8236586094       -3.1150760339        1.0142185442
 C        -9.4810716307       -2.6469491129        1.7092104227
 C        -8.4224464181       -2.2058378071        0.7399638630
 O        -8.5184266680       -2.3804944837       -0.5077921301
 C        -7.2136113101       -1.3943378754        1.3276613840
 C        -7.8961766782       -0.0132848649        1.2561660479
 O        -8.7146114363        0.2738182852        2.0708007892
 C        -7.3347728730        1.0698648780        0.3957566668
 C        -7.3438465986        0.7573512599       -1.1575111550
 C        -8.6899398919        0.7448324354       -1.8689816900
 O        -9.5112533994        0.0313742634       -1.3420562138
 C        -9.1563420481        1.6648103690       -3.1989266816
 C        -9.9267707065        2.9562246642       -2.6383663929
 O       -10.6404885117        2.8880758642       -1.6468953649
 C       -10.0913529406        4.2546365480       -3.6066627367
 C        -9.3745445461        5.5309413244       -3.1040831446
 C        -9.8053404257        6.0477876102       -1.5853779583
 O       -10.9598693646        5.9160860405       -1.1396530797
 C        -8.8557044921        6.8822520287       -0.6982593756
 C        -8.4262211298        8.1363516376       -1.5750693241
 O        -8.8087829087        8.4009233033       -2.6899627124
 C        -7.5604389025        9.2310031191       -0.8419669757
 C        -7.4833767525       10.5912513343       -1.7907387531
 C        -6.0062839227       11.2736057926       -1.7603394316
 O        -5.0301942277       10.7763960505       -1.2659473169
 C        -5.7975845395       12.7220847906       -2.3749410718
 C        -6.2215951560       13.7943296982       -1.3227979009
 O        -6.3607867442       13.5598302688       -0.1404474163
 C        -6.3123899217       15.2822863449       -1.9139783019
 C        -4.2256371912       12.8931432927       -2.5350924338
 C        -6.4007895844       12.8467797086       -3.8341739829
 C        -9.4899490960        7.6389533542        0.4391577564
 C        -7.5584806444        6.1867753702       -0.3037382874
 C        -7.8667843883        2.0624482543       -3.9102976876
 C        -9.9905018652        0.7968515370       -4.0576314231
 C        -7.0223831646       -1.5363261309        2.9513446202
 C        -5.9641721657       -1.7715790021        0.5978675921
 C       -14.1303668908       -3.0781092432        1.3850274633
 C       -13.1056495600       -2.9558754871       -0.8974178218
 C       -15.0081352813        3.8608532288        2.8474914146
 C       -12.8295531502        2.8328996774        3.6467604481
 H       -16.0935030193        1.1487817357        5.7405625606
 H       -16.1864331773        2.9098097639        5.2601237286
 H       -14.8519143752        2.2669529267        6.3261379630
 H       -15.1447318466        1.5735364373       -0.1532449641
 H       -16.0877613662        1.4368242727        1.4279566286
 H       -16.1252460805       -0.6480761405        0.3861452109
 H       -15.1066988548       -0.8404466824        1.8697234410
 H       -10.3420191335       -3.3086337220       -0.0194088117
 H       -11.2875477418       -3.9694696262        1.5947131909
 H        -9.0472464067       -3.3535163931        2.3750554285
 H        -9.7482080102       -1.7790875320        2.3455469994
 H        -6.2549292052        1.1750836531        0.6373177142
 H        -7.6535963091        2.1113284150        0.5047398971
 H        -6.8370296214       -0.1874690957       -1.3910365915
 H        -6.6224570297        1.3922149744       -1.5764117249
 H       -11.1322443906        4.4360801729       -3.6937017380
 H        -9.8199335534        4.2112331331       -4.7011638366
 H        -9.5037156144        6.2796206696       -3.8217192092
 H        -8.2351837373        5.4729905093       -3.1806280118
 H        -6.5782493382        8.8549414202       -0.5591548235
 H        -7.9367116099        9.5241864182        0.1423403800
 H        -8.3911973108       11.2797659189       -1.5696016219
 H        -7.7046916528       10.1398826170       -2.7600693409
 H        -6.3799385746       16.0741195113       -1.2347429374
 H        -7.0612828915       15.3822049994       -2.7108269107
 H        -5.4057450460       15.3947214244       -2.4555043298
 H        -3.7672534800       12.0224469021       -2.0904017668
 H        -3.7181072801       13.6904040998       -2.0194133120
 H        -3.9615664186       13.1999272254       -3.5821178094
 H        -6.4352317598       13.8488488890       -4.0739492883
 H        -7.4320782116       12.6124511382       -3.8755923692
 H        -6.1129450045       12.2099463683       -4.6542516040
 H       -10.1593548597        7.1713195382        1.1013141097
 H       -10.2982783972        8.3981862157        0.0769337580
 H        -8.6315187153        8.1230489264        0.9432534147
 H        -7.1607604207        5.4563693659       -0.9112440695
 H        -7.7068362429        5.6372756398        0.5999624811
 H        -6.7877204200        6.9438722825       -0.0346409082
 H        -8.0583015512        1.9868513147       -4.9973541401
 H        -7.1031766307        1.3208364387       -3.7877854092
 H        -7.6492580393        3.0213525191       -3.4956192070
 H       -10.8137166932        0.3200272449       -3.4629766261
 H        -9.3938607599       -0.0539923368       -4.5556569200
 H       -10.4121565761        1.3159966607       -4.9951377037
 H        -6.2100731105       -0.8054580182        3.1957366406
 H        -6.6206474240       -2.5284329181        3.1469367309
 H        -8.0172092113       -1.3450652720        3.4521767357
 H        -6.2313983366       -2.0466754609       -0.4072820045
 H        -5.2878133257       -2.5754936198        1.1106675234
 H        -5.2863006430       -0.9598219414        0.6546681425
 H       -13.6276030612       -4.0201529260        1.4839690296
 H       -15.0766880238       -3.1370394224        0.8470917458
 H       -13.9922827284       -2.7584225409        2.3961283823
 H       -12.4373159793       -2.4658868559       -1.5991583769
 H       -14.0274049348       -3.1766104598       -1.4337333884
 H       -12.6504689631       -3.8711346456       -0.6086393839
 H       -15.7446841391        4.1753311746        3.5733986852
 H       -15.6086304022        3.6570155270        1.9919343641
 H       -14.4864235361        4.8787160188        2.5591572752
 H       -12.8583873531        3.4635373932        4.5150411261
 H       -12.2694812063        3.4023260364        2.8983384268
 H       -12.1590333370        1.9253319904        3.9231343224
 Na      -11.4166631434        1.0754934145       -0.3108322021
