117

 C       -15.5548274311        2.1674817565        5.3295727240
 C       -15.1709080553        1.6208856451        4.0296470965
 O       -15.2561089942        0.4294071319        3.7468458437
 C       -14.1530029839        2.5054778705        3.1476693483
 C       -13.8577228213        1.7418173793        1.7797934542
 O       -12.7228556844        1.7200553421        1.2924537231
 C       -15.1224491007        1.3006489411        0.9663312919
 C       -15.2072917634       -0.3161007701        0.8097384483
 C       -14.1310524095       -0.9019376035       -0.0175102603
 O       -13.6330973236       -0.1921105618       -0.9197619626
 C       -13.3063219988       -2.2621369576        0.3642233145
 C       -11.9019355730       -2.0306257936        1.1868577897
 O       -11.6109648414       -0.9457574850        1.6968240735
 C       -10.8292951126       -3.1718310244        1.0854088980
 C        -9.5804856081       -2.6943607102        1.7810465545
 C        -8.5258611055       -2.2065130890        0.8660631505
 O        -8.5570680352       -2.2424833655       -0.3296541283
 C        -7.3394526968       -1.3691995992        1.4215972163
 C        -7.9652788353        0.0907755522        1.3477293788
 O        -8.8744867146        0.3435776395        2.1269089128
 C        -7.4263977838        1.1602414234        0.4095434699
 C        -7.2332957779        0.7191586847       -1.2625036619
 C        -8.6691180972        0.7863596397       -1.8013520123
 O        -9.3845121416       -0.1916515083       -1.5471180057
 C        -9.1473268336        1.6972602440       -3.0279822578
 C        -9.9462886378        2.9095647699       -2.5708593831
 O       -10.6883067369        2.8472166427       -1.5950472894
 C       -10.0302614147        4.2373525365       -3.3847892373
 C        -9.2748335469        5.5098447208       -2.8417422537
 C        -9.7861077911        6.0290324982       -1.5880541218
 O       -10.9964247730        5.7561167044       -1.3704798135
 C        -8.7213408941        7.0134551065       -0.7614077113
 C        -8.3161330687        8.2650518581       -1.6958797507
 O        -8.9218980279        8.3756318040       -2.7969433314
 C        -7.5308943178        9.3903546990       -1.0166633172
 C        -7.3365071142       10.6036906646       -1.9840293209
 C        -6.0502103220       11.2908530229       -1.7550761464
 O        -5.1640720258       10.7257962306       -1.1581065535
 C        -5.7726689973       12.7789732067       -2.4820662510
 C        -6.0748549751       13.8795497614       -1.4566577833
 O        -6.2657955105       13.6768098224       -0.2743617474
 C        -6.1707285135       15.3012599588       -1.9883822055
 C        -4.1993433866       12.9085874698       -2.5611717840
 C        -6.3045015538       12.6627058736       -3.8892922904
 C        -9.5617345046        7.5768246611        0.4705917679
 C        -7.5055028153        6.0903154131       -0.4042589814
 C        -7.7689744962        2.2737644456       -3.8607946076
 C       -10.1339034791        0.7890410434       -3.8098003216
 C        -7.1156947834       -1.5397727955        2.9726693896
 C        -6.1374150524       -1.7612665141        0.5567799759
 C       -14.1761680245       -3.1557214930        1.3031169705
 C       -13.0297963239       -2.9212507364       -1.0336144552
 C       -14.8574839056        3.8858495962        2.8676975031
 C       -12.8541762439        2.9624405926        3.7337478567
 H       -16.2184455188        1.4425488944        5.8223196997
 H       -15.8796324872        3.1873524989        5.3242849354
 H       -14.5584395440        2.0919009295        5.7669721427
 H       -15.0409590210        1.6909224276       -0.0227549515
 H       -16.0219121132        1.6537806107        1.4846276275
 H       -16.1464909006       -0.4635165640        0.2605821462
 H       -15.2348143013       -0.8485175780        1.7245520225
 H       -10.5233910430       -3.1688501827        0.0689805180
 H       -11.1350925988       -4.0966168271        1.5468356097
 H        -9.1364896458       -3.3600382880        2.5475072475
 H        -9.8946209692       -1.8795946561        2.3265460285
 H        -6.4955489807        1.5246533181        0.8173604926
 H        -7.9652492458        2.0173444577        0.4003500175
 H        -6.8501701495       -0.3139866145       -1.4684724203
 H        -6.4393651918        1.2891363932       -1.7722315961
 H       -11.1475264975        4.4554280842       -3.5407452821
 H        -9.6993388421        4.1921799534       -4.4331094218
 H        -9.5022078211        6.2659436815       -3.5989036676
 H        -8.1994636495        5.4499781046       -3.0178170554
 H        -6.5083891202        8.9495590942       -0.6431662185
 H        -7.9993095257        9.6912522387       -0.0692352253
 H        -8.1787380124       11.3277908800       -1.8330273483
 H        -7.4998362315       10.1138233518       -3.0053225489
 H        -7.0015964882       15.8131059150       -1.5051518007
 H        -6.0859092278       15.3751119294       -3.0264401629
 H        -5.2838876955       15.8603006090       -1.6449280680
 H        -3.6704550728       12.0632630108       -1.9519773029
 H        -3.7702115582       13.6814868609       -2.0597865474
 H        -3.8796589362       13.1725120120       -3.5117613078
 H        -6.1808006896       13.6077833019       -4.3680412086
 H        -7.3359934091       12.5683361345       -3.9479876427
 H        -6.0951191985       11.7544280609       -4.4525678734
 H       -10.1678772178        6.7200970121        0.8969022966
 H       -10.4070828565        8.2861548780        0.3885836962
 H        -8.8333565504        7.9245713908        1.2186429225
 H        -7.4254149106        5.1519683942       -0.9892888051
 H        -7.5823153684        5.7566942665        0.6035195221
 H        -6.6168352141        6.5470021038       -0.3744770980
 H        -8.1138932634        2.3700936060       -4.8905687082
 H        -6.9280110306        1.5694229241       -3.9985014771
 H        -7.5946134029        3.1428316769       -3.3881490431
 H       -10.9235442514        0.3165602489       -3.2328817485
 H        -9.5870135033        0.0352269154       -4.4418897103
 H       -10.5813427966        1.5084455162       -4.6366908269
 H        -6.2322789737       -0.9185088484        3.2193810242
 H        -6.9312064129       -2.5732157673        3.2200459000
 H        -8.0390116433       -1.1831639311        3.4188454873
 H        -6.3924442118       -1.7086714696       -0.4465972485
 H        -5.7645212554       -2.7816462109        0.8008732544
 H        -5.2460151975       -1.1397810634        0.8011913295
 H       -13.6207810104       -4.1236542046        1.2605576614
 H       -15.1918593199       -3.2095601842        0.9528918441
 H       -13.9201522547       -2.9112733468        2.2703587239
 H       -12.6001936990       -2.1806228045       -1.6651223477
 H       -13.9216876305       -3.4086917696       -1.5943507654
 H       -12.3068718761       -3.7409278377       -0.9408361184
 H       -15.1740888000        4.3997347870        3.7503725909
 H       -15.7983718370        3.5678517833        2.4397480451
 H       -14.5112112710        4.6452408527        2.1875486064
 H       -12.8859913209        3.4569786815        4.7735084351
 H       -12.3741611312        3.6922161817        3.0748495293
 H       -12.1866334346        2.1613327999        3.8149309961
 Na      -11.1309179697        0.8460101284       -0.4150759757
