117

 C       -15.5343356522        2.3293171753        5.3151402350
 C       -14.9338172991        1.6081030480        4.0694783134
 O       -15.2720831780        0.5106519705        3.7258917416
 C       -14.1484375765        2.5504028522        3.0576640505
 C       -13.8006796604        1.8393084999        1.6738556767
 O       -12.6436612414        1.6916718571        1.3245086243
 C       -15.0063900679        1.2961805000        0.9047053391
 C       -15.1609625275       -0.2280705368        0.8709275847
 C       -14.0105685979       -0.8486813626        0.0446345948
 O       -13.5540188506       -0.3239853253       -0.9672456290
 C       -13.3266604896       -2.2943879070        0.3828513139
 C       -12.0586345650       -1.9987821114        1.0921774468
 O       -11.9572535146       -0.9806856245        1.7495873902
 C       -10.9965388410       -3.0912223905        1.1494776687
 C        -9.6981307947       -2.8002332341        1.9711121855
 C        -8.6527161801       -2.1995891242        0.9439029381
 O        -8.7483464816       -2.3437257581       -0.2211379278
 C        -7.4207824102       -1.2785521688        1.5701781804
 C        -7.9618606222        0.1990205000        1.3271684458
 O        -8.9668671312        0.5607121588        1.9568241563
 C        -7.4696066529        1.2153222780        0.3357273279
 C        -7.2891603051        0.8975242969       -1.1757705398
 C        -8.5375862080        0.5896391020       -1.9400894582
 O        -9.3880226741       -0.2063024395       -1.6029184174
 C        -9.0428885206        1.7325453941       -2.9122587025
 C        -9.9583502046        2.9850083543       -2.3414829972
 O       -10.7349770641        2.7452040502       -1.4613219397
 C        -9.9966896287        4.1506835512       -3.3153622677
 C        -9.0520836894        5.3406567185       -2.9435251774
 C        -9.8101656790        6.0345628240       -1.7188118513
 O       -10.8586234771        5.8378876364       -1.2165874315
 C        -8.8263296745        6.9677675352       -0.8135724722
 C        -8.5267427331        8.3523953881       -1.7064481642
 O        -8.8592301354        8.3458571486       -2.8500328997
 C        -7.5985800401        9.4392768026       -1.3108521679
 C        -7.3152337050       10.6633372410       -2.1633878950
 C        -5.9573705554       11.2907094848       -1.7548891065
 O        -5.1772498361       10.6982247649       -1.0112960734
 C        -5.5874289891       12.6281310324       -2.5398136935
 C        -6.1407030914       13.9272055103       -1.6047822129
 O        -6.2198416860       13.7269476878       -0.4156175213
 C        -6.0785620779       15.4068075416       -2.0883659927
 C        -4.0224909691       12.8138413174       -2.6323861745
 C        -6.2678758446       12.6189137784       -3.8373802535
 C        -9.5621814783        7.3609837383        0.4925047331
 C        -7.6400694060        6.1801852079       -0.4295223206
 C        -7.8806243018        2.2750240498       -3.7920413475
 C       -10.0868000356        1.0160927525       -3.7891084654
 C        -7.0612022053       -1.7075818686        3.0375159872
 C        -6.1344877082       -1.6224887650        0.7471375310
 C       -14.2414246183       -3.2479946713        1.1733996187
 C       -13.0250609606       -2.9030589515       -1.0794222724
 C       -14.9313840515        3.8710733943        2.7346144476
 C       -12.7862372133        2.9423746106        3.9388905686
 H       -16.4658843551        1.7676536069        5.5422021425
 H       -15.8316238909        3.2907390538        4.9508526390
 H       -14.8433542712        2.3872250364        6.1368457860
 H       -14.9344951164        1.5568059329       -0.0650860976
 H       -15.9099794177        1.7781696952        1.4360646715
 H       -15.9843594080       -0.3865668696        0.1569998617
 H       -15.3991406410       -0.7140575423        1.8150530630
 H       -10.6307624079       -3.3913150396        0.2359353077
 H       -11.4368821137       -3.8065990427        1.7564762487
 H        -9.2718537342       -3.7811491445        2.2544873357
 H        -9.9112995220       -2.3168553221        2.9013063607
 H        -6.5019492769        1.5433276125        0.5641523102
 H        -8.0193549014        2.1898582689        0.4022635262
 H        -6.4615511860        0.1924129018       -1.2053495292
 H        -6.7168993022        1.7645659647       -1.6534528060
 H       -11.0496689599        4.5925027915       -3.3615368383
 H        -9.8891971069        3.7464432096       -4.3342136545
 H        -8.6188582864        5.9558104443       -3.8538550800
 H        -8.1377246566        4.9469786330       -2.5124273459
 H        -6.5964774073        8.9172922373       -1.1267093965
 H        -7.7857559291        9.8663020377       -0.2876915475
 H        -8.1048061682       11.3510238963       -1.9981580000
 H        -7.3574177911       10.3042535961       -3.2264725033
 H        -7.0975799155       15.7432235303       -2.4214670810
 H        -5.2311669197       15.5457251117       -2.8238545953
 H        -5.8668724713       16.0985496594       -1.2649082694
 H        -3.3274458583       12.2664899944       -2.0687592149
 H        -3.7627120363       13.8609275657       -2.2125822054
 H        -3.8223753457       13.1133590905       -3.5986647289
 H        -5.9666388725       13.5287222575       -4.4030487668
 H        -7.3823921635       12.7664255285       -3.8722674030
 H        -6.2834067017       11.6889720056       -4.3484509110
 H       -10.1361388511        6.4545094153        0.8803852059
 H       -10.2896633975        8.1035341786        0.5426507945
 H        -8.7731693891        7.6524413994        1.2005376641
 H        -7.5674414473        5.2162247019       -0.9513266340
 H        -7.4748942441        6.0321107023        0.6529246808
 H        -6.6964344172        6.7473002932       -0.5682607796
 H        -8.3617500146        2.6253736812       -4.6496471529
 H        -7.3554742933        1.4560928075       -4.2210167068
 H        -7.2975104152        3.0715800466       -3.1816400434
 H       -10.9908406619        0.7597287776       -3.1054205560
 H        -9.7724308049        0.1353940050       -4.2849473716
 H       -10.4788530593        1.6722044144       -4.5093543512
 H        -6.1238173285       -1.2557510508        3.2268477443
 H        -6.9729391269       -2.8072792968        3.0361697414
 H        -7.8171603854       -1.3966403919        3.6833340592
 H        -6.3767185933       -1.5596369308       -0.3580701367
 H        -5.9385177787       -2.5921924234        0.9289448083
 H        -5.1765037424       -1.0809392499        0.9762981505
 H       -13.7156867153       -4.1941074271        1.1938408478
 H       -15.1932712446       -3.2910425391        0.6929384305
 H       -14.1613913412       -2.9147988824        2.2197096105
 H       -12.6121567163       -2.1239559344       -1.7760501653
 H       -13.9133232451       -3.3339472481       -1.5197163825
 H       -12.3276643260       -3.7986894592       -1.0716218351
 H       -14.5742118634        4.5924855818        3.4380491793
 H       -16.0458050054        3.9777121696        2.8123765212
 H       -14.7853082328        4.2247350383        1.7845331172
 H       -13.0850960101        3.1334066465        4.9600915057
 H       -12.0412839867        3.6882062255        3.6875880944
 H       -12.2955811051        1.9999552035        4.0309652604
 Na      -11.0653835876        0.5738663157       -0.3836082148
