117

 C       -15.5893675722        2.4575904323        5.2473532962
 C       -15.0152247851        1.7396305732        3.9675652860
 O       -15.2281923770        0.5620687057        3.7948442221
 C       -14.0010397831        2.6161322691        3.0173377619
 C       -13.5944760398        1.8392441428        1.7398808259
 O       -12.4010686152        1.7433565150        1.4519026691
 C       -14.7638340950        1.2829861348        0.8237098519
 C       -14.8464122653       -0.2100687420        0.8690109511
 C       -13.8509923774       -0.8569823230       -0.1512118332
 O       -13.2393536628       -0.1203601607       -0.9535600736
 C       -13.4950490041       -2.3300867881        0.1486726748
 C       -12.2082099926       -2.1623822106        1.2352246971
 O       -12.1375597650       -1.0672345192        1.7917835079
 C       -11.2534644252       -3.2141540507        1.5550337977
 C        -9.9138430143       -2.7329738126        2.1844924626
 C        -8.8194238739       -2.2520892467        1.0999099841
 O        -8.8764966096       -2.5420849484       -0.0796589462
 C        -7.6451292090       -1.1837778117        1.6357001719
 C        -8.1562207773        0.2694745378        1.3241229677
 O        -9.2410640115        0.5809551797        1.7062021067
 C        -7.2682046380        1.2053870577        0.5869789262
 C        -7.2470767649        1.1050058676       -1.0832802485
 C        -8.5830812994        0.7143168458       -1.9205430051
 O        -9.2484630266       -0.1868330980       -1.4206663020
 C        -9.1481931930        1.6573044991       -2.9965861646
 C       -10.0288481786        2.7766489669       -2.2597507647
 O       -10.4803585899        2.4521222076       -1.1690017664
 C       -10.2661104424        4.1787402561       -3.1231132956
 C        -9.1731427885        5.1659530402       -2.8094028357
 C        -9.6800555329        5.9779491542       -1.5325798705
 O       -10.9149450234        5.9417744266       -1.2446757955
 C        -8.7589459247        6.9618034036       -0.8669695695
 C        -8.4562509142        8.2090168229       -1.7985392026
 O        -8.9145258617        8.2762498569       -2.9513076254
 C        -7.6210905812        9.3718496606       -1.2996229326
 C        -7.2046265529       10.5947369299       -2.2513835990
 C        -5.9568218927       11.2903482035       -1.7555618134
 O        -5.1477476478       10.9505224322       -0.9568392455
 C        -5.4414838377       12.5139821449       -2.6142314155
 C        -6.0007078154       13.7796172298       -1.7381922382
 O        -6.3471391105       13.7316322708       -0.5844456836
 C        -5.8704430398       15.2150427747       -2.4601900878
 C        -3.9143834653       12.5390714919       -2.7562993789
 C        -6.0527016353       12.8303752310       -3.9615152867
 C        -9.5966471841        7.5582020916        0.3509805454
 C        -7.1903036924        6.6114006766       -0.4458148869
 C        -7.8931188742        2.2241185934       -3.8239721243
 C       -10.1264484019        1.0580949371       -4.1114021134
 C        -7.4450374941       -1.4209121987        3.1539261760
 C        -6.3521031621       -1.4492027268        0.7887431766
 C       -14.5317582675       -3.1740382788        0.9085964075
 C       -13.0655462527       -3.1051642883       -1.1520279226
 C       -14.6642524728        3.9563026397        2.4823234100
 C       -12.7501468881        2.8557162950        3.7767596961
 H       -16.6357992532        2.2898415917        5.4931845572
 H       -15.5312900562        3.5224319060        4.9630372532
 H       -14.8540926469        2.2108059698        6.0401256342
 H       -14.4467298456        1.6270100858       -0.2529219839
 H       -15.6270639744        1.8009976849        1.1752906598
 H       -15.8267479218       -0.7033466464        0.6634593129
 H       -14.5799539666       -0.4256707576        1.9351459366
 H       -10.8666175711       -3.5883855149        0.5217509459
 H       -11.6040811749       -3.9856781946        2.3196201434
 H        -9.5225151509       -3.5044869077        2.8860859370
 H       -10.1584842136       -1.8594812062        2.8349359264
 H        -6.1326123282        1.1302248988        0.9118752737
 H        -7.4397422871        2.2396945735        0.8705709634
 H        -6.5503545467        0.2507823255       -1.2765342449
 H        -6.7130011604        1.9317570448       -1.4363697577
 H       -11.1040879303        4.7626427497       -2.7939037352
 H       -10.5054300158        3.7911897163       -4.0989094988
 H        -8.8849751762        5.8755082805       -3.5485352055
 H        -8.2502204892        4.4999661119       -2.7040048119
 H        -6.7272879534        9.0926884039       -0.8308474779
 H        -8.1813387392        9.8646568467       -0.5528157043
 H        -8.0340416890       11.3245431412       -2.2025319491
 H        -7.0762448655       10.2817962246       -3.2455931360
 H        -5.5539010923       15.2361751179       -3.5056853009
 H        -5.2569847806       15.7593111531       -1.7770579017
 H        -6.8296571891       15.8072943635       -2.4693536418
 H        -3.4274857418       12.1842483631       -1.7553436342
 H        -3.3795208462       13.4131025672       -2.8797165415
 H        -3.7456179767       12.0615649407       -3.7632471070
 H        -5.4638919165       13.6271665061       -4.3808355185
 H        -7.0504268331       13.1346488542       -4.1267088999
 H        -6.0913276258       11.9100097776       -4.6101122909
 H        -9.7650375452        6.9516731556        1.2250785644
 H       -10.5987937096        7.7613413855       -0.1397399238
 H        -9.3711532251        8.5591110805        0.6175458764
 H        -7.0977786554        5.5092165355       -0.2240654776
 H        -6.8550199563        7.3272451515        0.3154648344
 H        -6.4045853975        6.8035907468       -1.1596326246
 H        -8.1212837651        2.9530226004       -4.6656214798
 H        -7.4717203183        1.2882486019       -4.2768762450
 H        -7.3253925140        2.5982066298       -3.1045824875
 H       -11.1362135735        0.9320871660       -3.9041918150
 H        -9.6907414154        0.0608236218       -4.3562675306
 H       -10.2171406951        1.7556419341       -5.0478079932
 H        -6.6119231477       -0.8244488491        3.6105650838
 H        -7.3881205296       -2.4792313800        3.1827529107
 H        -8.4440953188       -1.1128454266        3.5479531646
 H        -6.5233634604       -1.5424632914       -0.2546943186
 H        -5.8311733533       -2.4531135721        1.1589779161
 H        -5.6681721299       -0.5877195079        0.8453910351
 H       -14.0460207234       -4.1365235721        1.2211187539
 H       -15.3401475609       -3.3475614596        0.1480981634
 H       -14.9108957457       -2.5319187958        1.6827552418
 H       -12.1888315355       -2.7717537233       -1.6012106473
 H       -13.8720953662       -3.0704008285       -1.9182434443
 H       -13.0324788256       -4.1315175306       -0.9713578704
 H       -14.2093056202        4.9579863642        2.6853108245
 H       -15.6429149013        4.1379359357        2.8921358207
 H       -14.9682066347        3.8494647455        1.3794489177
 H       -12.9459023551        3.6294429993        4.5818855740
 H       -12.0932817357        3.4056617941        3.1051500372
 H       -12.1791757051        2.0257126233        4.1506509772
 Na      -11.2995120090        0.2931379329        0.0386108417
