117

 C       -15.5234589835        2.6719222157        5.1091899894
 C       -14.9869505944        1.9618731623        3.8261231761
 O       -15.0817858697        0.7755141005        3.5831115913
 C       -13.9191456053        2.7952549424        3.0011357767
 C       -13.4731802700        1.8886703903        1.7448810493
 O       -12.3394992463        1.7119715791        1.5117074921
 C       -14.5777896662        1.4641463586        0.7107306895
 C       -14.7403669519       -0.1480281464        0.7140271248
 C       -13.6943792652       -0.9155450273       -0.1591526477
 O       -13.1357633005       -0.4158825939       -1.0799198919
 C       -13.4224994090       -2.4904716472        0.1419308871
 C       -12.3944252303       -2.3751793758        1.3812189362
 O       -12.3098346944       -1.2844729667        1.8701534984
 C       -11.2714311380       -3.4673216787        1.6403139654
 C       -10.0113707056       -2.6250717423        2.3496847178
 C        -9.0010103746       -2.2867186873        1.2245570558
 O        -9.0025861837       -2.8459731800        0.1104474737
 C        -7.9448193200       -1.1812690639        1.5541182872
 C        -8.4501272243        0.1548529044        1.0819174321
 O        -9.5743606324        0.4941975129        1.4781371721
 C        -7.5349617139        1.2794563128        0.5003138608
 C        -7.3356724569        1.1148243738       -1.0166094079
 C        -8.6148872603        0.7533684921       -1.7649938485
 O        -9.3532062935       -0.0447985500       -1.2311166206
 C        -9.0061755211        1.5302817773       -3.0231150183
 C        -9.9979639455        2.6753624826       -2.2074404609
 O       -10.4014195282        2.3744766227       -1.1291793649
 C       -10.3081658875        3.9995119109       -2.9491362759
 C        -9.1856695938        5.1524361272       -2.5992004140
 C        -9.7416062896        6.1362436001       -1.3749505032
 O       -10.8299164042        6.1629781066       -0.9286404546
 C        -8.7339417665        7.2489917021       -0.7723160528
 C        -8.4032647663        8.3704551135       -1.9459079852
 O        -8.7411752878        8.3932387977       -3.0697122282
 C        -7.7121937974        9.5724228975       -1.4161202319
 C        -7.1586236802       10.5410227814       -2.5341087828
 C        -5.9564027867       11.3588150627       -1.9651642918
 O        -5.3774779585       10.9051412842       -0.9676388897
 C        -5.3668475454       12.4864443503       -2.7021965374
 C        -5.8882317790       13.8624417982       -1.9668953355
 O        -6.4108815291       13.5975824892       -0.9122105348
 C        -5.5791412597       15.2415771476       -2.4525266281
 C        -3.7678827021       12.4234537125       -2.7623136623
 C        -5.9610150022       12.3997735953       -4.1997441973
 C        -9.2404613084        7.9163596371        0.5071724634
 C        -7.4233062216        6.4098858813       -0.3490745356
 C        -7.9614495794        2.2194053513       -3.8007808742
 C        -9.8122527693        0.5015284437       -3.8402006882
 C        -7.7770927799       -0.8747200730        3.0804068801
 C        -6.6608293367       -1.8302158675        1.0455213964
 C       -14.7729888685       -3.1317575860        0.5941671232
 C       -12.8102478348       -3.1483467403       -1.0968678046
 C       -14.5661825886        4.0120350433        2.4798476404
 C       -12.6897307369        3.1016492840        3.9525589159
 H       -16.6046660139        2.5931667582        5.1120131717
 H       -15.3421031405        3.7366875341        5.2220234479
 H       -15.0353448203        2.0318042978        5.8293089877
 H       -14.1856774998        1.7321296064       -0.2803318808
 H       -15.4889858762        2.0069365366        0.8878538227
 H       -15.7680981659       -0.3937399854        0.4388666170
 H       -14.5652612486       -0.6134305216        1.6713804944
 H       -10.8810087011       -3.7964658484        0.7043671513
 H       -11.5708565784       -4.2935795797        2.2443622121
 H        -9.5028448980       -3.1056472257        3.1646407958
 H       -10.3578051992       -1.6884418676        2.7518029870
 H        -6.6228025551        1.1852940365        0.9308763326
 H        -7.9341820017        2.3048177642        0.6953081958
 H        -6.6516918162        0.2699716681       -1.0821660200
 H        -6.7895104912        2.0291933388       -1.4810598585
 H       -11.2512831882        4.5237247476       -2.6372694150
 H       -10.3226835255        3.7036780101       -4.0435779880
 H        -9.1665626121        5.7313753699       -3.5527520873
 H        -8.2587464451        4.6328567351       -2.4763074645
 H        -6.8075242928        9.4759251003       -0.7399618409
 H        -8.4561249167       10.2244966432       -0.8580191447
 H        -7.9938388725       11.0565894763       -3.0174704327
 H        -6.6999362390        9.8153613630       -3.2995835009
 H        -4.5305951169       15.4979073260       -2.2870150970
 H        -6.2695334000       15.8854635529       -1.8737225849
 H        -5.7569235771       15.4217852839       -3.4591820698
 H        -3.3856479301       12.9279496113       -1.9859310281
 H        -3.3467552811       12.9968495921       -3.6670660798
 H        -3.4341601574       11.4106707979       -2.8629597052
 H        -5.4857911509       13.0475647707       -4.9595974592
 H        -7.0339445025       12.7283015310       -4.1666323975
 H        -5.9960912688       11.4144046069       -4.6677531821
 H        -9.0864890875        7.1983446168        1.3439431847
 H       -10.2751675108        8.2751557972        0.4617545754
 H        -8.7420414347        8.8818800777        0.7744958281
 H        -7.4460559331        5.9313453178        0.5222462983
 H        -6.5080260065        6.9103978376       -0.5499060059
 H        -7.4180151394        5.5966048560       -1.0822288363
 H        -8.5009497726        2.7077341481       -4.5756942127
 H        -7.2542411780        1.4926261601       -4.1378620905
 H        -7.5161138074        3.0595472665       -3.1473296776
 H       -10.4424010252       -0.0703408824       -3.0297880791
 H        -9.0971019283       -0.2570440251       -4.2085908753
 H       -10.6058198369        0.7908691143       -4.4963011388
 H        -7.1058350298       -0.0434007882        3.0056737852
 H        -7.2920394882       -1.7752677742        3.5348587466
 H        -8.6614359473       -0.4666239171        3.5459261078
 H        -6.6218372853       -1.9515239488       -0.0546153848
 H        -6.7670006375       -2.7986675007        1.4536396862
 H        -5.7810109607       -1.3010016786        1.2333228696
 H       -14.6247180279       -4.1739722296        0.6398262391
 H       -15.5979780282       -2.8527584378       -0.0428692361
 H       -14.9922859989       -2.5762950339        1.5365096420
 H       -11.7770042676       -2.6991538661       -1.2948519794
 H       -13.4085907078       -2.8373700683       -1.8952523927
 H       -12.7369516968       -4.2576542900       -1.1481044280
 H       -13.8193435076        4.7093041980        2.2100139148
 H       -15.1072560111        4.5836824672        3.2358271171
 H       -15.2348126752        3.9297843085        1.6356013403
 H       -12.8786350905        3.7939745878        4.7026802519
 H       -11.8051452930        3.5159672447        3.4165371142
 H       -12.2796834036        2.1147765056        4.3253302634
 Na      -11.1157935125        0.5310837468        0.2241263403
