117

 C       -15.6044656486        2.6938433025        4.9857759230
 C       -15.1027805647        2.1339440201        3.6843407971
 O       -15.1921534268        0.9457102237        3.4727387751
 C       -13.9350637446        2.8955427276        2.9704020464
 C       -13.3808894741        2.0450989883        1.7775832095
 O       -12.1643069918        1.8257001598        1.7447876927
 C       -14.3118554788        1.4578105791        0.6422456949
 C       -14.6291490144       -0.0405595388        0.6034726714
 C       -13.6977590177       -0.9228761561       -0.2767658211
 O       -12.9243916652       -0.4493381064       -1.1308515312
 C       -13.3670789464       -2.3961721334        0.1474131814
 C       -12.5240435524       -2.2976150613        1.4965508200
 O       -12.6018608365       -1.2620081512        2.1850807549
 C       -11.5390222004       -3.4153306953        1.8071089601
 C       -10.2405612069       -3.0794339070        2.4226904148
 C        -9.1727369985       -2.5171294613        1.4072439133
 O        -9.1679322845       -2.9371046967        0.3208167890
 C        -7.9876007088       -1.3030898537        1.7473927368
 C        -8.4101099428        0.2010017292        1.1876838888
 O        -9.5174454663        0.5266926052        1.5018678362
 C        -7.4797856851        1.1770642893        0.5225390515
 C        -7.1419127075        0.9817023974       -0.9844558499
 C        -8.4596868962        0.5979720538       -1.6416062865
 O        -9.0857791974       -0.2929764104       -1.0977085291
 C        -9.0476583866        1.4742559524       -2.8023934918
 C       -10.0316808965        2.7904399421       -2.1491789898
 O       -10.7196372736        2.5768637904       -1.1944531336
 C       -10.3204000242        4.1481668570       -2.9283472969
 C        -9.3847401637        5.2746386586       -2.4950900498
 C        -9.8100947833        6.1229092915       -1.2408039678
 O       -10.9505946778        6.1789189359       -0.7723377651
 C        -8.6515438298        7.2188387995       -0.6854528149
 C        -8.3623610117        8.2787158846       -1.8978904057
 O        -8.6172054110        7.9127490771       -3.0477293578
 C        -7.9364625496        9.6550604585       -1.4887467353
 C        -7.1238655253       10.4222767216       -2.5844203699
 C        -5.8451390270       11.1643590514       -2.0641064886
 O        -5.3217289652       10.9365435290       -0.9885493016
 C        -5.2974825108       12.3851950929       -2.9991502206
 C        -5.8252630801       13.6800063099       -2.1214901887
 O        -6.6429665568       13.6873474788       -1.2083653274
 C        -5.1895286200       15.0396674817       -2.6586756160
 C        -3.6866704262       12.5021874313       -2.8576920143
 C        -5.6510192793       12.5623141276       -4.4835200767
 C        -9.2390948556        7.9723912587        0.6207691533
 C        -7.3291295678        6.6343825738       -0.4757343236
 C        -7.9478992183        2.1422702128       -3.7974032630
 C        -9.9519316370        0.5670261394       -3.6107245893
 C        -7.8321886545       -1.0703309568        3.3332881293
 C        -6.6959880451       -1.6400256821        1.1283556653
 C       -14.6236032123       -3.3027242121        0.4873035851
 C       -12.6569328216       -3.1413710616       -1.0391484990
 C       -14.5358774801        4.3207084824        2.4723247373
 C       -12.6152522603        3.2579386108        3.8319786881
 H       -16.6758654972        2.9202747980        4.9847330426
 H       -15.1505525908        3.6480640046        5.1208096482
 H       -15.2455998272        1.9642723602        5.7078098677
 H       -13.9392880986        1.8196749538       -0.3274024186
 H       -15.3714488686        1.9300679389        0.7560106033
 H       -15.6695707778        0.0693204016        0.2192459805
 H       -14.7580992480       -0.6234613878        1.5513162542
 H       -11.3218952035       -4.0704331111        0.9000658791
 H       -12.0125356812       -4.1214790801        2.5774978350
 H        -9.8166523381       -3.9381308177        3.0076437370
 H       -10.4474905414       -2.2998563350        3.1845358432
 H        -6.5027033941        1.2303948555        1.2158915186
 H        -8.0338715523        2.1505911719        0.5273221315
 H        -6.4703350837        0.1089024397       -1.1872513304
 H        -6.8510137714        1.8530869704       -1.4817284031
 H       -11.3578875505        4.4120551936       -2.6522245568
 H       -10.1815990613        4.0726158653       -4.0001095027
 H        -9.4106776066        5.7805078395       -3.4399127534
 H        -8.4149314052        4.7114068591       -2.3395953362
 H        -7.2121526777        9.6448959561       -0.7016231772
 H        -8.7257466260       10.2907533041       -1.2006959235
 H        -7.8208009476       11.0914739213       -3.1018142339
 H        -6.8257616200        9.7656870619       -3.3447255851
 H        -4.9178047390       15.8446052924       -1.8833679930
 H        -5.7213204538       15.5153809637       -3.4894501025
 H        -4.1716037722       14.7424148659       -3.1182403569
 H        -3.5246579837       13.1139960114       -1.8406295564
 H        -3.1868251127       13.1085964663       -3.6092015817
 H        -3.2326510974       11.4598010524       -2.6583313100
 H        -5.5301896594       13.5820157192       -4.9507400027
 H        -6.7152416997       12.2851065837       -4.5800470561
 H        -4.9844171764       11.9854734226       -5.2578767330
 H        -9.8609370540        7.2312384853        1.0724815519
 H        -9.6246718167        8.9638385657        0.5907350809
 H        -8.5020693273        8.0798511455        1.3647013292
 H        -7.5068395557        6.1129299012        0.6009340017
 H        -6.5365428896        7.4578660806       -0.2832824027
 H        -6.9291565634        5.8099957173       -1.1030532514
 H        -8.5544498079        2.4451304489       -4.6506256094
 H        -7.1847040756        1.3676906639       -4.0081819962
 H        -7.4410601517        2.9985056645       -3.3923425111
 H       -10.6933056059       -0.0899982157       -3.2952365525
 H        -9.3509676565       -0.0104330390       -4.2937955997
 H       -10.5183618439        1.3496307696       -4.1439258388
 H        -7.1266493478       -0.2735089197        3.5118265714
 H        -7.5030543033       -1.9823186413        3.6981429646
 H        -8.7754713416       -0.7038793615        3.6535111371
 H        -6.8165127305       -1.8195923007        0.0714417573
 H        -6.1763301303       -2.4889512669        1.5322204929
 H        -6.1531277215       -0.6444980204        1.0237524136
 H       -14.1912467617       -4.2547597828        0.1201420196
 H       -15.4329601866       -3.0587829235       -0.1862881172
 H       -15.0667678547       -3.2603082855        1.4264533156
 H       -11.7372699863       -2.7044141901       -1.3353810023
 H       -13.2747550347       -3.3588433948       -1.9912352098
 H       -12.3369071419       -4.1151035056       -0.6444895107
 H       -14.3748309847        4.5740846496        1.3721547266
 H       -14.1419910983        5.1837934771        3.1236352580
 H       -15.6003988687        4.3932696267        2.5976127987
 H       -12.8743571684        3.9228038385        4.7151651043
 H       -12.0189016273        3.9092167764        3.2476632793
 H       -11.9937362397        2.4932900545        4.0636196108
 Na      -11.3966771894        0.6320506800       -0.2417534494
