117

 C       -15.6995789926        2.7927389422        4.9783003122
 C       -14.8806227862        2.0434866364        3.7778240514
 O       -15.3513441221        1.0459386208        3.3333141605
 C       -13.9349577418        2.9371946161        2.8583239649
 C       -13.2969210164        2.0374089929        1.7502106551
 O       -12.1339860985        1.7976089225        1.6682531172
 C       -14.2742486449        1.5915471284        0.5834365659
 C       -14.5481881166       -0.0072270713        0.5976494892
 C       -13.5291136596       -0.8997620983       -0.1873350239
 O       -13.0795068495       -0.3827333865       -1.2023456157
 C       -13.2753841814       -2.4222174380        0.1764966395
 C       -12.5062524798       -2.2957423281        1.5165874204
 O       -12.6918765682       -1.3817720028        2.2758138722
 C       -11.5478706174       -3.4754091161        1.9942653994
 C       -10.2063494886       -2.9670721340        2.5473982806
 C        -9.1539376988       -2.3619036591        1.4225212321
 O        -9.1215955971       -2.9203418651        0.3278719583
 C        -8.0847917022       -1.3269638561        1.8648708421
 C        -8.5145152965        0.1139161326        1.4122606406
 O        -9.6487461394        0.5647394267        1.3561713248
 C        -7.3007461415        1.0826809089        0.7692441548
 C        -7.1362427693        0.9126987946       -0.8329203980
 C        -8.5050641405        0.6002245181       -1.4884630006
 O        -9.1976357826       -0.3493991523       -1.2627809038
 C        -9.1446531877        1.6822497858       -2.7450308904
 C       -10.1047817824        2.7299570803       -2.2031643957
 O       -10.7805862101        2.4996849810       -1.2446615051
 C       -10.2765701293        3.9634415638       -3.0090053046
 C        -9.3426437568        5.2308189568       -2.5353939772
 C        -9.7565086319        6.1563424391       -1.1883021916
 O       -10.8317243864        6.1496899766       -0.7435003804
 C        -8.6971109308        7.2289271205       -0.6310850877
 C        -8.4842755236        8.1722794936       -1.8707801054
 O        -8.4320934416        7.7917578826       -2.9782882217
 C        -8.0089321951        9.5981766053       -1.4982619107
 C        -7.0710088282       10.3547525372       -2.6741233634
 C        -5.8886652089       11.2525107883       -2.1932281761
 O        -5.2715655552       10.8612135087       -1.1829740207
 C        -5.2357089404       12.4176393896       -2.9359876481
 C        -5.7215827383       13.7164503306       -2.3307352886
 O        -6.6616975341       13.6886985725       -1.5839521870
 C        -5.1227085930       15.0705794651       -2.6957966628
 C        -3.7047573274       12.3403458547       -2.7694324519
 C        -5.5447799190       12.4405924085       -4.4038957595
 C        -9.2998122398        7.9595743311        0.5806480528
 C        -7.2348780409        6.7938903534       -0.4011656566
 C        -8.0137939331        2.1471749024       -3.6536186986
 C       -10.1911613126        0.9125745790       -3.4878316561
 C        -7.8813124340       -1.3523059461        3.4922360594
 C        -6.7697759408       -1.7260337371        1.1512899179
 C       -14.6009470924       -3.1482449736        0.5369301592
 C       -12.5237453309       -3.0166450706       -1.0390413117
 C       -14.5200592997        4.2621714122        2.3563325982
 C       -12.7364837348        3.3769639831        3.7681756636
 H       -16.7076968987        3.1058799510        4.5965978698
 H       -15.2386657186        3.7533365716        5.1251323159
 H       -15.6483109122        2.2072158900        5.8867538515
 H       -13.6813241789        1.8909406588       -0.1759631519
 H       -15.2599381100        2.1508517627        0.4143246858
 H       -15.5506073678       -0.1209440235        0.0873316835
 H       -14.7797177807       -0.3777517986        1.6118253955
 H       -11.3003503090       -4.2012464795        1.1234557466
 H       -12.1765649186       -4.1041260653        2.7689190957
 H        -9.6007626559       -3.7570934893        3.1451279930
 H       -10.4438087240       -2.2152492873        3.2683504044
 H        -6.3743785006        0.8906290716        1.1800818638
 H        -7.6536531442        2.1244726132        1.0136369934
 H        -6.5490800641        0.0361806111       -1.0348459801
 H        -6.8521361250        1.7896398089       -1.4020583776
 H       -11.3738905180        4.0965355390       -3.0214891209
 H        -9.8590986228        3.8564287916       -3.9346573688
 H        -9.4215131834        5.7652924250       -3.4824191498
 H        -8.4879225816        4.7023776587       -2.4509951302
 H        -7.3250407955        9.6317861820       -0.6738850699
 H        -8.7392106258       10.2914065135       -1.3201162103
 H        -7.7563352694       11.0002363805       -3.1640706709
 H        -6.7957144494        9.6834481828       -3.5023056820
 H        -5.6129168077       15.9035184415       -2.1418489595
 H        -5.0547577977       15.3340952283       -3.7857827867
 H        -4.0866097423       15.0477349595       -2.3686591194
 H        -3.2515070945       12.5554677647       -1.8252184134
 H        -3.2854076193       13.1676473929       -3.5371705641
 H        -3.4506769483       11.2923503805       -2.9957680029
 H        -5.5229557045       13.4703910416       -4.7680115733
 H        -6.5543522538       12.0874986235       -4.5884174729
 H        -4.7981112831       12.1113238872       -5.0586355951
 H       -10.1361625554        7.4427517666        1.0765522860
 H        -9.4053221321        8.9734341941        0.5466323961
 H        -8.5483594232        7.8342752244        1.3740629128
 H        -7.2000109057        5.9329862916        0.2159812420
 H        -6.6733019589        7.5864175242        0.1721565079
 H        -6.7146734232        6.4632033235       -1.3536294153
 H        -8.5394549122        2.5070309542       -4.4542960176
 H        -7.3015106540        1.3857407788       -3.8603737564
 H        -7.4213046971        3.0458784704       -3.1618924909
 H       -11.0624696432        0.4561769972       -2.7968538603
 H        -9.7682350623       -0.0363543423       -3.9406312693
 H       -10.7632714502        1.4901259145       -4.1830513251
 H        -7.0460443687       -0.7073430949        3.7617934173
 H        -7.6064240223       -2.4102753246        3.6403377428
 H        -8.7881822089       -0.9965909243        3.9099205490
 H        -6.9959305835       -1.9791544524        0.0572299203
 H        -6.2983244560       -2.5552491744        1.5585705865
 H        -6.1010051879       -0.8600167717        0.9617857177
 H       -14.2541502388       -4.1803289741        0.6412785680
 H       -15.3124813068       -3.1122222671       -0.3001050815
 H       -15.1812030201       -2.6950366421        1.3786663507
 H       -11.6124872083       -2.4680681981       -1.2807275304
 H       -13.1148896133       -3.0689263018       -1.8917175777
 H       -12.1464214399       -3.9984401098       -0.8153517139
 H       -14.6702279400        4.4140629367        1.2688460304
 H       -13.7958327542        5.0652553100        2.7768974495
 H       -15.4492022081        4.5741776060        2.8178281138
 H       -12.9496886611        3.9403004501        4.6562765512
 H       -11.9435688486        3.9464958181        3.2435173367
 H       -12.2278607089        2.4278152543        3.9878507445
 Na      -11.3617723809        0.6993555404       -0.3292868649
