117

 C       -15.5811674056        2.9555144648        4.6917690632
 C       -15.1310966855        2.2219838205        3.4796204335
 O       -15.6187181962        1.1765078499        3.1431395310
 C       -13.9395624253        3.0185992834        2.6778765871
 C       -13.3873423386        2.1225594980        1.5835745192
 O       -12.2202038719        1.8028378377        1.6460482197
 C       -14.4157372309        1.5513086019        0.4828477684
 C       -14.4926363704       -0.0107194907        0.7022127741
 C       -13.5163427893       -0.7685507196       -0.1056112282
 O       -13.0690512711       -0.2161152012       -1.1368277612
 C       -13.2859934677       -2.1453625651        0.2616268134
 C       -12.6027956045       -2.1954421328        1.7437005516
 O       -12.8949154176       -1.4362596283        2.6345637967
 C       -11.5971645395       -3.3040971930        1.9589108014
 C       -10.3121612174       -2.8489892014        2.7255562233
 C        -9.2340177691       -2.4749765824        1.6676497245
 O        -9.4443486531       -2.7163341912        0.5000980861
 C        -7.9070041932       -1.6124262817        2.0438462416
 C        -8.4442104491       -0.2652151145        1.4149715738
 O        -9.5736747605       -0.0665783337        1.7291595674
 C        -7.5903889196        0.8624218323        0.8330201126
 C        -7.5033510556        0.9788890565       -0.7371790707
 C        -8.8848280563        0.7608534475       -1.4003214083
 O        -9.5126598542       -0.2680686551       -1.1805115875
 C        -9.2818224004        1.6971286454       -2.4828098241
 C       -10.1717794217        3.0240425976       -2.0794948735
 O       -10.8621391994        2.9767873663       -1.1209987736
 C       -10.0529412378        4.2988629644       -2.9331780608
 C        -8.9198478483        5.2176827961       -2.5056021865
 C        -9.4111583028        6.1859398552       -1.3051448045
 O       -10.4243537957        5.8452591165       -0.7134417006
 C        -8.5623988439        7.4296122392       -0.8434013139
 C        -8.1952927524        8.3330834076       -1.9674290638
 O        -8.0613464117        7.8235880644       -3.0609228130
 C        -8.0129883641        9.8731521326       -1.5400790936
 C        -7.2595293668       10.6434423552       -2.7403061698
 C        -5.8753131021       11.0598625489       -2.2760368224
 O        -5.2612937769       10.5126083078       -1.3255151300
 C        -5.0840213118       12.2401547841       -3.0456459499
 C        -5.7848057408       13.5742735006       -2.5573435557
 O        -7.0010813910       13.5876612395       -2.4508542317
 C        -4.8444042807       14.8047303240       -2.7682194068
 C        -3.6026918838       12.1364347721       -2.7795562003
 C        -5.3885522234       12.0973416524       -4.6454346787
 C        -9.3103468912        8.0633406607        0.3225562394
 C        -7.4159429211        6.5653584606       -0.2086452785
 C        -8.0673135595        2.2384731299       -3.3376650191
 C       -10.1675125646        0.9768195497       -3.5462025515
 C        -7.7523976482       -1.3637593157        3.5699265739
 C        -6.6293685036       -2.1438307666        1.3891318808
 C       -14.5472575063       -3.0132207348        0.3939245236
 C       -12.3377183737       -2.8647472595       -0.7184766755
 C       -14.5267662019        4.3100701962        2.0079700134
 C       -12.7441566609        3.3751510328        3.5954118548
 H       -16.5096571334        3.4119533268        4.2754014309
 H       -14.9704184930        3.7149305097        5.0998096006
 H       -15.7631695142        2.1789550670        5.4105554165
 H       -14.0975840641        1.7460739806       -0.5460383444
 H       -15.4810440803        2.1403731039        0.5627715350
 H       -15.4247414886       -0.5099744250        0.4082259040
 H       -14.4959603444       -0.2327417822        1.7775350585
 H       -11.4521675924       -4.0604600610        1.1927264112
 H       -12.1484247416       -3.9246779165        2.6760666085
 H        -9.9633433770       -3.6604942014        3.4051087022
 H       -10.5121704337       -2.0355350585        3.3947212533
 H        -6.5159733189        0.8108715075        1.1757818944
 H        -8.1962288781        1.7841210399        1.2401412138
 H        -6.9609359361        0.1743196548       -1.2891816113
 H        -7.2200844167        1.9766674661       -0.9453601105
 H       -11.0696201014        4.8222909591       -2.9521864269
 H        -9.8177648882        3.8381065665       -3.8794802693
 H        -8.5492110365        5.6672196923       -3.4394883049
 H        -8.3057820230        4.4293859864       -1.9780721608
 H        -7.1921746687        9.9145059933       -0.7696613519
 H        -8.8822430741       10.4083407945       -1.1963112273
 H        -7.7519415831       11.4925758148       -3.2317026153
 H        -7.2716367934        9.9305377758       -3.5567784860
 H        -4.7987136512       15.0651195765       -3.8585440639
 H        -3.8873928137       14.6831467749       -2.2588416248
 H        -5.1506993645       15.7312354476       -2.2746026226
 H        -3.4169399924       11.5376925252       -1.9354227078
 H        -3.2004713937       13.2473319495       -2.8093063673
 H        -3.0805707852       11.4742464901       -3.4151779552
 H        -4.4754407066       12.4498475984       -5.2379975385
 H        -6.3373267616       12.5870469984       -4.9071941720
 H        -5.2521493557       11.0143735217       -4.9165946680
 H       -10.3017464493        8.5146366021       -0.0339259444
 H        -8.6940714563        8.7970138604        0.7480581741
 H        -9.6254330186        7.3993277651        1.1361362996
 H        -7.7682491733        5.8179260023        0.5040592019
 H        -6.9538298351        7.2894474229        0.5256819326
 H        -6.7156539472        6.1532905754       -1.0167856109
 H        -8.2898081326        2.8337201504       -4.1711192804
 H        -7.5061861008        1.3480471471       -3.6184949043
 H        -7.3431552419        2.6860347557       -2.5643664022
 H       -11.1867447703        0.7108240150       -3.2088091394
 H        -9.8000466282        0.0696846851       -3.9889358854
 H       -10.2562630235        1.6882387898       -4.2888784864
 H        -6.8844320232       -0.7197526872        3.7072407977
 H        -7.5945164942       -2.2813414072        4.1103410818
 H        -8.6674002051       -0.8617397852        3.7562087555
 H        -6.4624691794       -1.7538447155        0.3528262427
 H        -6.5943942041       -3.1528719461        1.2680197714
 H        -5.7195250413       -1.9868250200        2.0660700602
 H       -14.2532928855       -4.0293796636        0.7728032271
 H       -14.8698686475       -3.1604822432       -0.6185221865
 H       -15.3730735914       -2.6449545711        1.0141574491
 H       -11.2937987586       -2.5280613135       -0.5817519052
 H       -12.6106509425       -2.5332457442       -1.7490056621
 H       -12.2497143034       -3.9777256343       -0.6967728650
 H       -15.6066022671        4.4703013156        2.0808637633
 H       -14.2066230139        4.4760616456        0.9029924464
 H       -14.0561722767        5.0771084629        2.5145193191
 H       -12.9405914295        4.2795762080        4.2126081320
 H       -11.8140479093        3.5003895248        3.0743779484
 H       -12.6025914636        2.5840446155        4.2695320551
 Na      -11.1864440960        0.6552195903       -0.1145751091
