117

 C       -15.7283961606        3.0285765361        4.7695449390
 C       -15.1954550542        2.3855915748        3.4269036960
 O       -15.5977467221        1.2997745925        3.0546149546
 C       -13.9781648407        3.1291330436        2.6156878739
 C       -13.4560721556        2.0750610478        1.5669461716
 O       -12.3091398778        1.7608589503        1.5001834079
 C       -14.4329145127        1.5988708545        0.5180291062
 C       -14.7355665638        0.0903927887        0.6641137078
 C       -13.6344052811       -0.7999519688       -0.1363415990
 O       -12.8935808275       -0.2425228859       -0.9258324213
 C       -13.2423323247       -2.2464538704        0.2540854677
 C       -12.6383698641       -2.2050697180        1.7643893212
 O       -13.0711198575       -1.3807763801        2.4894726725
 C       -11.6497162689       -3.3631541263        2.3109594167
 C       -10.1890171108       -2.9792172996        2.8093170866
 C        -9.1385692047       -2.5516562806        1.7228469393
 O        -9.3470106474       -2.7623069688        0.5216858213
 C        -7.9185465912       -1.6814904203        2.0737807553
 C        -8.5133986426       -0.3738609722        1.5408446395
 O        -9.7366949071       -0.1065574658        1.7898366940
 C        -7.6167409492        0.7374138136        0.8953484667
 C        -7.4560375006        0.9661232628       -0.6598529526
 C        -8.7768009026        0.8016470287       -1.4384735706
 O        -9.5650318097       -0.0529261389       -1.0952737043
 C        -9.2539260963        1.7780924053       -2.6825221681
 C       -10.1085001582        2.9211430537       -2.0980225485
 O       -10.7759297012        2.8472857956       -1.0687172891
 C       -10.0269511059        4.2292765910       -2.9851577577
 C        -8.9307760948        5.2329459752       -2.4751007793
 C        -9.4142521722        6.0870046558       -1.2653536285
 O       -10.4193757437        5.8627988876       -0.6949079904
 C        -8.5284164078        7.3357323207       -0.8638478156
 C        -8.0335423634        8.2626717212       -1.9461011464
 O        -7.9543806502        7.9511251699       -3.0929813704
 C        -8.0176049716        9.7913729121       -1.6306920609
 C        -7.2682835961       10.7673774952       -2.6248725740
 C        -5.8453413974       11.0655141670       -2.2753975642
 O        -5.2893785703       10.4498316529       -1.3832360407
 C        -5.0227001533       12.1039476017       -3.1039572940
 C        -5.7333573798       13.4948717684       -2.8617269645
 O        -6.9143359571       13.5225484979       -2.6755719381
 C        -4.9570864600       14.7477562820       -2.7541269626
 C        -3.5283376648       12.0278051073       -2.7733969848
 C        -5.3562842960       12.0042722899       -4.6886801985
 C        -9.3682062955        8.2033467287        0.2194710484
 C        -7.1762927927        6.6914114705       -0.0745637200
 C        -7.9691780250        2.2907016451       -3.3420921826
 C       -10.3430582109        1.0008017733       -3.6787981181
 C        -7.6966731977       -1.3472418439        3.5506327407
 C        -6.5864265326       -2.1852590819        1.4210136315
 C       -14.6175011939       -3.1257057004        0.3311395150
 C       -12.3173137208       -2.8117148222       -0.7766174906
 C       -14.5218717756        4.3833284052        1.9869478754
 C       -12.7868971171        3.4705104771        3.5754543530
 H       -16.6021653553        3.6774223675        4.6004525100
 H       -14.9384760551        3.5690119396        5.2801307220
 H       -15.9343645215        2.1670205767        5.3757127429
 H       -14.0727904149        1.6589487766       -0.5113188101
 H       -15.2624551633        2.2283007702        0.5387160561
 H       -15.8149675665       -0.1399563612        0.4052818056
 H       -14.7271202787       -0.2448591975        1.7133027281
 H       -11.5325161122       -4.1291820625        1.4583800744
 H       -12.1799496209       -4.0792694001        3.0488096548
 H        -9.7913734848       -3.8676128037        3.4262671088
 H       -10.1776310503       -2.1893400720        3.5348199857
 H        -6.5848026183        0.5680028541        1.0993215228
 H        -8.0416596918        1.6585654336        1.4838096454
 H        -6.9894436514        0.1012609895       -1.0631191134
 H        -6.9443744824        1.9216723311       -0.8952244520
 H       -10.9494180188        4.8471461070       -2.8721575006
 H        -9.9424573926        3.8555569189       -3.9631372555
 H        -8.7635356583        5.9376099637       -3.3060924061
 H        -8.1125689114        4.6974599007       -2.0942634439
 H        -7.6261715000       10.0655141460       -0.6698150304
 H        -8.9838376849       10.1443164485       -1.7123637383
 H        -7.7712094469       11.6929882923       -2.5065134486
 H        -7.5979305121       10.5580991145       -3.6333184695
 H        -4.0959052689       14.9784671853       -3.4270038322
 H        -4.7581509412       14.9433444824       -1.6373061981
 H        -5.6355359502       15.5852658597       -2.8814530047
 H        -3.4350964388       11.6832122846       -1.7858389745
 H        -3.0125829736       12.9555775753       -3.0681889170
 H        -3.0607991971       11.0486364366       -3.1251980627
 H        -4.4402762206       12.4296610964       -5.2219581551
 H        -6.2832869757       12.6801144787       -4.8513009807
 H        -5.4119064881       10.9899217509       -5.1154222668
 H        -9.9427809403        8.9945466213       -0.2576197095
 H        -8.7155774684        8.6535475626        0.9204442645
 H       -10.0895572880        7.6311911329        0.7515207156
 H        -7.3999377926        6.3703335104        0.9665994737
 H        -6.5328345403        7.6151466718        0.1783237541
 H        -6.6178266652        5.8605536497       -0.7081624481
 H        -8.0812791022        2.7356061587       -4.3370568629
 H        -7.3245562936        1.4320402637       -3.4457445603
 H        -7.4207983260        2.9012827614       -2.5750943348
 H       -11.0499472237        0.5259775099       -2.9739033984
 H        -9.8230357082        0.1026261393       -4.1201500822
 H       -10.8462311277        1.3870130762       -4.5174976514
 H        -6.8797314323       -0.6961119499        3.5584236151
 H        -7.3432591140       -2.2742297862        3.9954364747
 H        -8.5956846745       -1.0041392502        3.9476370207
 H        -6.4539813657       -1.8773399250        0.3438850485
 H        -6.4399509839       -3.2905889159        1.3728243220
 H        -5.7705054979       -1.9743095958        2.0518198285
 H       -14.5305961678       -4.1930216705        0.4228676728
 H       -15.1297419021       -2.8944864033       -0.5940877241
 H       -15.2233993188       -2.8112490319        1.2426466182
 H       -11.2491137509       -2.3993314016       -0.6128636896
 H       -12.6041092026       -2.4527783100       -1.7246993922
 H       -12.1433700450       -3.9113614445       -0.8081332462
 H       -15.4835990848        4.8640598099        2.3297059657
 H       -14.5498450971        4.2715167682        0.9116586326
 H       -13.6573744522        5.1463718466        2.1299721605
 H       -12.9825567066        4.1809616099        4.2632523604
 H       -11.8966978424        3.6958463584        3.0131376021
 H       -12.5767012657        2.5220500534        4.1411406486
 Na      -11.2489303129        0.8123742240        0.0507412144
