117

 C       -15.7906454264        3.1250065625        4.7413258442
 C       -15.1282867818        2.5012193073        3.4991286591
 O       -15.6484304370        1.5154472871        2.9951446569
 C       -14.0399471840        3.1665293235        2.6389048156
 C       -13.6699640680        2.1549146429        1.5551674532
 O       -12.4638857838        1.8766259661        1.6635601467
 C       -14.5574647738        1.5698243120        0.4367787027
 C       -14.7709341981        0.0522421693        0.4553577876
 C       -13.5773907346       -0.7690139718        0.0579842735
 O       -12.8775255973       -0.2506461628       -0.7742461292
 C       -13.2563724822       -2.3036216170        0.3010507504
 C       -12.6700161028       -2.2898580994        1.7591221655
 O       -13.0829244292       -1.4035466182        2.5104126011
 C       -11.6394069265       -3.3280304255        2.4141259127
 C       -10.2284527911       -3.0539399671        2.7666474268
 C        -9.1854133313       -2.6981604458        1.7072499634
 O        -9.3108274901       -3.0476310063        0.5816300515
 C        -7.9814931873       -1.6589644474        2.1404066522
 C        -8.5601090045       -0.2715090304        1.5513184479
 O        -9.7968192420       -0.0697838359        1.7057678509
 C        -7.5995682102        0.7774940738        0.8983340298
 C        -7.4421138977        0.8641622397       -0.6177709076
 C        -8.8343406871        0.7941659939       -1.4306270849
 O        -9.6783079249        0.0348181821       -1.0729494119
 C        -9.0779310174        1.6786225061       -2.7041553318
 C        -9.9458675109        2.9353413745       -2.1146657908
 O       -10.6659403702        2.7374674840       -1.1520060982
 C       -10.0677643584        4.3111684369       -2.8688819505
 C        -9.0057765087        5.3698546402       -2.4020181358
 C        -9.3685665173        6.0887102524       -1.1881731432
 O       -10.4722993118        5.8206045643       -0.7047698383
 C        -8.4634267081        7.3225481274       -0.6918755563
 C        -7.9737063523        8.4018817347       -2.1045039144
 O        -7.7215301797        7.9395186127       -3.2314527896
 C        -8.0370498128        9.7724974917       -1.6841027092
 C        -7.3394813149       10.8271493608       -2.5326685516
 C        -5.8038858348       10.8738958954       -2.3446528843
 O        -5.2652212428       10.3892961087       -1.4072203527
 C        -5.0587915760       11.9860978437       -3.2371117911
 C        -5.6950424327       13.4964835789       -2.8574250201
 O        -6.9196227702       13.5391839618       -2.9449511084
 C        -4.9488108033       14.7956979614       -2.6679255372
 C        -3.5742878255       11.9552287070       -2.8847423465
 C        -5.1867329467       11.7618387284       -4.7353238866
 C        -9.3610118266        8.1222680287        0.2345275827
 C        -7.0904170400        6.9879467169       -0.0403774286
 C        -7.8837043006        2.1467610142       -3.5050788768
 C       -10.1402030388        1.0662372195       -3.5594508305
 C        -7.6253269072       -1.4363778452        3.7053587772
 C        -6.7353166817       -2.1521799379        1.4092918053
 C       -14.6419082735       -3.2033696086        0.3080788863
 C       -12.3093794654       -2.8218131380       -0.8009157488
 C       -14.5302153657        4.5067246651        1.9100171670
 C       -12.8830663516        3.4712003923        3.6272833558
 H       -16.4980175348        3.8409120129        4.3700935957
 H       -14.9719105911        3.5913627352        5.3551731281
 H       -16.2620450738        2.3416818648        5.3566193136
 H       -14.3473847192        1.7483756081       -0.6022879718
 H       -15.4518982619        2.0329068763        0.5973697357
 H       -15.6010321350       -0.1415350802       -0.2642535009
 H       -15.2511766773       -0.3219079532        1.3762794497
 H       -11.7159871596       -4.2821518884        1.7926159597
 H       -12.1279845038       -3.7760857829        3.3445965069
 H        -9.9404414727       -3.9335071018        3.3548117897
 H       -10.1249525725       -2.2318548424        3.5427400856
 H        -6.5467677253        0.6388671842        1.1429963324
 H        -7.8967657725        1.6558215062        1.3123891887
 H        -6.8240413290        0.1039767432       -1.0550672568
 H        -7.0517007139        1.8949798946       -0.8089185094
 H       -10.9183634283        4.8336494928       -2.6079339330
 H       -10.1587636404        4.0381286769       -3.9529797247
 H        -9.1848173007        6.1344189142       -3.1278911474
 H        -8.0185958355        5.0136177589       -2.2672957700
 H        -7.6106861158        9.7912624460       -0.7325749340
 H        -9.0667226348       10.1330448723       -1.6461625272
 H        -7.8866649621       11.7483352727       -2.5410516595
 H        -7.6157117766       10.4706213568       -3.5259000184
 H        -3.8707059765       14.6962234540       -2.6648577492
 H        -5.4276799041       15.5028035954       -1.9618509944
 H        -5.0866681709       15.4239771595       -3.5900677185
 H        -3.4721293628       12.0529230782       -1.7643143740
 H        -3.0298416851       12.4975015683       -3.5277448859
 H        -3.2448703080       10.9127973936       -2.7765153914
 H        -4.4475881754       12.3698369669       -5.2809568901
 H        -6.2036178876       12.0686560110       -5.0084172600
 H        -4.9860122891       10.6946285689       -5.0055150492
 H        -9.8097645514        8.9081694748       -0.3188056759
 H        -8.9589725046        8.6004854248        1.1649594572
 H       -10.1061657073        7.4480430941        0.5823138325
 H        -7.1157799649        6.8348125143        1.0988220036
 H        -6.2360910861        7.6784112454       -0.2045667608
 H        -6.8739517846        6.0482971513       -0.5019160254
 H        -8.3752364496        2.5168061153       -4.4802460230
 H        -7.1520026007        1.3887856218       -3.8263390789
 H        -7.4308685437        2.8733547585       -2.9759828751
 H       -10.7766689471        0.4990082522       -2.9179882109
 H        -9.6152339229        0.3222973959       -4.2686491571
 H       -10.7991011020        1.6217620457       -4.4401973308
 H        -6.8123014619       -0.7737639707        3.6941484761
 H        -7.1840951863       -2.3929579174        3.8971248454
 H        -8.4937459790       -1.2532410042        4.3428267123
 H        -6.8467713256       -2.1131696324        0.3625781517
 H        -6.4396872745       -3.2704202319        1.6144534138
 H        -5.8510453458       -1.7675139251        1.8322472076
 H       -14.5161771144       -4.2783671315        0.2614246413
 H       -15.3260223704       -2.8937807102       -0.5167425555
 H       -15.0602945009       -3.1253913694        1.3189582451
 H       -11.3680541869       -2.3103176442       -0.7292700076
 H       -12.6793572805       -2.6393138056       -1.8155796154
 H       -12.0244546794       -3.8419448321       -0.6711742087
 H       -15.1007311086        5.2391493434        2.5709442451
 H       -15.2047913270        4.1600108643        1.1678210047
 H       -13.6918843934        5.0876735126        1.3471609764
 H       -13.2575994521        4.1282187329        4.4487328206
 H       -12.1919804378        4.0185279383        3.0066853820
 H       -12.3457520659        2.6346026627        4.1029278310
 Na      -11.1711798420        0.9394215671        0.1537891540
