117

 C       -15.9758020290        3.4924887866        4.7976849276
 C       -15.4977071500        2.6728086541        3.4798726775
 O       -16.0992337500        1.6926678272        3.1018445842
 C       -14.3836354026        3.3235602212        2.5776209227
 C       -13.7426270038        2.1052054414        1.6291144958
 O       -12.6020274501        1.7964465296        1.7373250774
 C       -14.6783513946        1.5660782153        0.5540004363
 C       -14.7020544588        0.0537785339        0.5474669197
 C       -13.4868358635       -0.7324880884       -0.0092940344
 O       -12.6356440399       -0.1421351210       -0.6863673024
 C       -13.2965506449       -2.2674093444        0.3652537177
 C       -12.6972364891       -2.2982511540        1.9428720239
 O       -12.8957094938       -1.4622348863        2.7598882542
 C       -11.8072419244       -3.5281316297        2.1895591323
 C       -10.4871239897       -2.8642985153        2.8753492282
 C        -9.3181985643       -2.8171011078        1.8652571853
 O        -9.2190917784       -3.6191048373        0.9300648800
 C        -8.0979402212       -1.6587164407        1.9698690658
 C        -8.6371236597       -0.2293198357        1.5564840058
 O        -9.8152388488        0.0577446339        1.7169027149
 C        -7.6197054829        0.8502955561        0.9454733212
 C        -7.3337713601        0.7063440563       -0.6086377393
 C        -8.6004568034        0.6539120728       -1.5345321751
 O        -9.5237888013       -0.1292328794       -1.2609436034
 C        -8.9646180596        1.6611417865       -2.7106983603
 C        -9.8305737856        2.8806986809       -2.1331575449
 O       -10.4671145797        2.8459406160       -1.0979678667
 C        -9.9173386770        4.2700283260       -2.9638043868
 C        -8.8895922787        5.4960646558       -2.5029631022
 C        -9.2816538190        6.3471761512       -1.2280218349
 O       -10.1915593773        5.8362177946       -0.6574045441
 C        -8.5223966814        7.5289972339       -0.7558994146
 C        -7.9909860198        8.4480819127       -1.8809511742
 O        -7.5683406695        7.8117832064       -2.8221701776
 C        -8.0953728120       10.0121221697       -1.6138189174
 C        -7.3324157365       10.6938950981       -2.8317730913
 C        -5.8606449665       10.9589640136       -2.4659521907
 O        -5.2965045889       10.2363678080       -1.6065912293
 C        -5.0597567530       11.9092251667       -3.3107935013
 C        -5.6778049082       13.3486756321       -3.2451448919
 O        -6.8240951829       13.5876373331       -3.4748749991
 C        -4.7618050749       14.4817659479       -2.6457990210
 C        -3.5701369632       11.9710398967       -2.8239505398
 C        -5.1197498413       11.3251161109       -4.7628653678
 C        -9.3680347764        8.3325595188        0.4174885316
 C        -7.0335907683        7.0281273167       -0.2685728774
 C        -7.6217551723        2.0286824250       -3.4259226091
 C        -9.9801876860        0.8997582851       -3.6689235296
 C        -7.9220018913       -1.7147465025        3.5566348999
 C        -6.8694668746       -2.1047966026        1.1313651918
 C       -14.5850554863       -3.0806946548        0.4715602146
 C       -12.2384491635       -2.8966169825       -0.6573848572
 C       -14.7949241692        4.6231368547        1.9218208638
 C       -13.1624366723        3.7591849335        3.5068654245
 H       -16.1987583337        4.5259334028        4.3985318238
 H       -15.2825822022        3.4420936130        5.6186834840
 H       -16.9519217099        3.1012797445        5.0908466659
 H       -14.4164276001        1.9767707014       -0.4938472482
 H       -15.7510692387        1.9212518818        0.6914542645
 H       -15.5333756406       -0.1854232836       -0.0833585490
 H       -15.0935083873       -0.2428731112        1.5030276908
 H       -11.6792481200       -4.1331262758        1.3590926813
 H       -12.3100441822       -4.2448957902        2.7500122872
 H       -10.1565993279       -3.4696638723        3.7270562572
 H       -10.6906054479       -1.9121249606        3.2740855965
 H        -6.6453016220        0.8992505963        1.4197748383
 H        -8.0778671282        1.8958958389        1.3283624270
 H        -6.9280460694       -0.3508185283       -0.7391747183
 H        -6.6161664804        1.3646588175       -1.0786097015
 H       -11.0190905243        4.6559862299       -3.0231575306
 H        -9.6447257170        4.0066281780       -3.9704853682
 H        -8.8620202865        6.1005341677       -3.4611007371
 H        -7.9752563175        4.8713067400       -2.3001165802
 H        -7.6276455688       10.4860594918       -0.6607849120
 H        -9.1538779663       10.3718760020       -1.6750283494
 H        -7.8563286273       11.6664509148       -3.0175459239
 H        -7.6097531645       10.1428890611       -3.7564612670
 H        -5.0683807946       14.5743715335       -1.6039142811
 H        -4.7294286240       15.3556356346       -3.2810534267
 H        -3.7525863236       14.3247185284       -2.4443075370
 H        -3.4988925132       12.6031541837       -2.0066575841
 H        -3.0126399745       12.2649257823       -3.7682441470
 H        -3.0786609895       11.0069067940       -2.4546760134
 H        -5.0137630604       12.1670561164       -5.4684073182
 H        -6.1197435975       10.8745014715       -4.9037117544
 H        -4.4709383800       10.4617719877       -4.8152499200
 H       -10.4974448749        8.3479249007        0.2421897498
 H        -9.2390926655        9.3837458742        0.6735043635
 H        -9.0514264146        7.6941987460        1.2951806404
 H        -7.2035707297        6.5607465962        0.6393517576
 H        -6.3087779840        7.8091874191       -0.2395393861
 H        -6.6436872587        6.2877998748       -0.9913962381
 H        -7.7095043210        2.6986333306       -4.2342844939
 H        -7.4034369350        1.0985606292       -3.9062631002
 H        -6.7161449971        2.3367348086       -2.7500700312
 H       -11.0027082921        0.7234336242       -3.2149643655
 H        -9.6683331182        0.1188448982       -4.2886004400
 H       -10.0986501209        1.6205281788       -4.4040578801
 H        -7.0364079764       -1.0670237300        3.7563910848
 H        -7.7413522664       -2.7942061958        3.7981172249
 H        -8.8718598573       -1.4200172762        3.9820590175
 H        -7.2245056030       -2.8013913201        0.3591690319
 H        -6.2762772352       -2.7085206787        1.7458329867
 H        -6.0834274708       -1.4323095374        0.9130791685
 H       -14.3705679471       -4.1099441121        0.8073925940
 H       -15.1433003371       -3.1365991736       -0.4405838102
 H       -15.1353647820       -2.8339413232        1.3789882542
 H       -11.3234112611       -2.2690802448       -0.8763394843
 H       -12.6462651162       -3.1796370883       -1.5768204109
 H       -11.8599271280       -3.8361806336       -0.2597446475
 H       -14.0478225677        5.2996864656        2.2022992947
 H       -15.7527029666        5.0284781095        2.2486999990
 H       -14.8237074736        4.5312313397        0.8591212561
 H       -13.5131776579        4.3385250809        4.3118971508
 H       -12.2920508525        4.2420847830        2.9507835686
 H       -12.8881910436        2.8279607062        4.0590416917
 Na      -11.0717593328        1.2027940364        0.3264456124
