117

 C       -16.1146668463        3.7764475529        4.7128959448
 C       -15.8431372068        2.8554556999        3.5588154484
 O       -16.4237482997        1.8894323905        3.1374228125
 C       -14.5954812885        3.2861626327        2.7012960506
 C       -13.9056131021        2.2305745333        1.7975998142
 O       -12.6901860239        1.9277912557        1.8722185025
 C       -14.6714513034        1.6033424858        0.6366537166
 C       -14.6378078539        0.0222184172        0.8474261763
 C       -13.4494839189       -0.6289633560        0.1657516692
 O       -12.6376442595       -0.0469548955       -0.5324797182
 C       -13.2813903129       -2.1819651488        0.3787868307
 C       -12.7074289007       -2.2698173240        1.9108323409
 O       -13.0422272336       -1.4233406239        2.7304286528
 C       -11.7081330737       -3.4165173978        2.4430571143
 C       -10.4343980633       -2.8055819347        2.9098278291
 C        -9.2709488370       -2.9780776810        1.8943150720
 O        -9.1683025586       -3.8623015194        1.1012327719
 C        -8.1788212682       -1.8107563517        1.9106240274
 C        -8.7583060252       -0.3702856623        1.3959517684
 O        -9.8458716231       -0.0516369915        1.8978007880
 C        -7.8011431817        0.6327225595        0.8716024858
 C        -7.4326105299        0.6300990658       -0.5877961489
 C        -8.6892820888        0.5314080820       -1.4852296677
 O        -9.4643939127       -0.3458583702       -1.2683100587
 C        -8.8257053645        1.6796052334       -2.5978259760
 C        -9.6060076315        3.0178035396       -2.1308303300
 O       -10.1579682970        3.0846595516       -1.0489425412
 C        -9.4554978446        4.2852798192       -2.9364760406
 C        -8.6895505640        5.4976573356       -2.3525438188
 C        -9.2279713348        6.1895686364       -1.2378042037
 O       -10.2246771232        5.8137110006       -0.6020637444
 C        -8.4529026366        7.4541458813       -0.6914654206
 C        -8.0124289188        8.4995991259       -1.9006600047
 O        -7.4860425457        8.0638192300       -2.9042753879
 C        -8.2226823508       10.1109719062       -1.7823009608
 C        -7.4215708455       10.7840568771       -2.8792952061
 C        -5.9509656626       10.7577380088       -2.6032954915
 O        -5.4644147081       10.2258873724       -1.6236211821
 C        -4.9476907954       11.7694326100       -3.3406003700
 C        -5.4914526295       13.2431925174       -3.5378552109
 O        -6.5903335626       13.4311921228       -4.1050305551
 C        -4.9145027828       14.4357943758       -2.7918917441
 C        -3.3873258086       11.5403161105       -2.8336809518
 C        -4.9258886542       11.4316408967       -4.8907309115
 C        -9.1512763447        8.0883366606        0.4582504817
 C        -7.1661356353        6.8069068944       -0.0273510970
 C        -7.4240582696        2.0935633509       -3.2608551027
 C        -9.7314797596        1.0767758504       -3.6684734161
 C        -7.7488495149       -1.4970286064        3.3383080600
 C        -6.9634519489       -2.3765676772        1.1242200373
 C       -14.5991030044       -2.8583655112        0.4827338728
 C       -12.3729963055       -2.7882643882       -0.7571978548
 C       -15.2099675196        4.4207238154        1.5851208362
 C       -13.4750416930        3.8176989413        3.5568096711
 H       -15.6097796591        4.6809104576        4.5638186415
 H       -15.8490209232        3.2012732995        5.5981719671
 H       -17.1605687346        4.0644284885        4.7225412745
 H       -14.0599385890        1.9175772792       -0.1220707246
 H       -15.6831740742        2.0012144700        0.4134643423
 H       -15.6114364133       -0.5049009157        0.6625545419
 H       -14.5730104156       -0.0601543364        1.9656556028
 H       -11.5358945548       -4.2033326866        1.6267817435
 H       -12.2644836955       -4.1193303156        3.1721363931
 H       -10.1979316459       -3.1993144676        3.8996404040
 H       -10.6799641703       -1.6903591765        3.0402679459
 H        -6.9101773927        0.4651985069        1.5498536784
 H        -8.0611193462        1.5667222074        1.1621313574
 H        -6.7060540139       -0.1068248673       -0.9103930387
 H        -6.9185599097        1.5633866001       -0.8653819019
 H       -10.4765591497        4.4925920305       -3.0618484504
 H        -9.1156487244        4.1971066607       -4.0041112279
 H        -8.6413119579        6.2291981579       -3.1341243919
 H        -7.7114123268        5.0846121083       -2.1190692022
 H        -8.0415975716       10.5945743546       -0.8972413559
 H        -9.2856205314       10.2154838849       -1.9640904591
 H        -7.8119209671       11.6845962575       -3.3098160398
 H        -7.5300668172       10.0900285134       -3.7054746410
 H        -5.7172161148       15.0800180573       -2.4354232153
 H        -4.1836024024       14.9724113077       -3.4102955365
 H        -4.4317635576       14.1875701251       -1.7850042634
 H        -3.3295550631       11.0431853353       -1.8173719461
 H        -2.7573356666       12.4718767552       -2.8951481530
 H        -2.9499138161       10.9627943934       -3.5840434442
 H        -4.2575121479       12.2310996374       -5.2376614542
 H        -5.8664282665       11.6392126191       -5.3930046379
 H        -4.7663251389       10.3193109848       -5.0886604018
 H        -9.7864927860        7.4146853007        0.9587493971
 H        -9.8483642560        8.8084732190        0.0724021665
 H        -8.4846208277        8.5591488043        1.1122398180
 H        -7.3732983945        5.7880740456        0.4949185378
 H        -6.9658874919        7.6449629150        0.7083925372
 H        -6.2095689876        6.8135276408       -0.5766210415
 H        -7.7548620118        2.7077051748       -4.1390586646
 H        -6.7400822940        1.3181030047       -3.6789901105
 H        -6.9079565810        2.8469329283       -2.7000360652
 H       -10.8255538479        0.9870884488       -3.4074950544
 H        -9.3875367942        0.0444465454       -3.9200112865
 H        -9.7166763910        1.5191500669       -4.6873643514
 H        -6.8694186872       -0.9029418682        3.3312089019
 H        -7.7390253028       -2.4280320101        3.8066061487
 H        -8.6139380195       -0.9693181217        3.7559582162
 H        -7.2020860291       -2.5621534641        0.0803949049
 H        -6.4434883584       -3.2764027353        1.4787365094
 H        -6.0839764389       -1.6442788312        1.2401090620
 H       -14.5787306583       -3.8175593457        0.9778033393
 H       -14.9557092592       -3.0934470014       -0.5312153763
 H       -15.3093564582       -2.3895761523        1.1030885395
 H       -11.3331732039       -2.5400961721       -0.6898533950
 H       -12.7454702370       -2.3847228008       -1.7831012423
 H       -12.4870057990       -3.8851356898       -0.8896064902
 H       -14.6601855125        4.5703668133        0.6179890777
 H       -15.1659692415        5.3935121063        2.1956863193
 H       -16.2464995312        4.1297419777        1.4368914836
 H       -13.6761253863        4.8613428063        3.9709878151
 H       -12.6125110037        3.8897941502        2.9832519702
 H       -13.4077249161        3.2476782728        4.4092268150
 Na      -11.0351521668        1.3259656964        0.2825191313
