117

 C       -16.3113810007        3.7681090748        4.6907097149
 C       -15.8831176965        2.8777986644        3.4795134586
 O       -16.6363186939        1.9897669850        3.2159710929
 C       -14.6058298567        3.3776239753        2.5913421743
 C       -13.8355248366        2.2836634885        1.7241220833
 O       -12.6956458252        2.1236334753        1.9997429713
 C       -14.6812064082        1.5479792664        0.6730559214
 C       -14.6244784552        0.0279407693        0.8867400554
 C       -13.5058437287       -0.5884341688        0.2101245657
 O       -12.6905102008        0.0618331066       -0.4469287960
 C       -13.3253819193       -2.1660980433        0.4061274048
 C       -12.7599190764       -2.1933781881        1.9556630997
 O       -13.1133318970       -1.4380239877        2.8007600235
 C       -11.8332061114       -3.3422576962        2.4014354798
 C       -10.4519295113       -2.9083932468        2.9399551469
 C        -9.2367437932       -2.9134999609        1.9471502633
 O        -9.1984802504       -3.8940983447        1.1796281249
 C        -8.0972088651       -1.8351006294        1.9329683812
 C        -8.7418322786       -0.5163933707        1.5140048276
 O        -9.8705522520       -0.2233845451        1.6698732233
 C        -7.7072718278        0.6524113230        1.0321899706
 C        -7.3956445013        0.5891814428       -0.5266920101
 C        -8.6519924570        0.6692573472       -1.5421345037
 O        -9.5753143401       -0.1665800011       -1.3703310817
 C        -8.7871939809        1.7036924682       -2.5512322188
 C        -9.4206002341        3.0770852813       -1.9348542983
 O       -10.0684807129        3.0377620040       -0.9370465279
 C        -9.3856403580        4.2595553668       -2.9205804127
 C        -8.4238551225        5.4629384982       -2.4331745150
 C        -9.1668161715        6.2630289125       -1.1986596294
 O       -10.1991567502        5.9099570002       -0.6799605475
 C        -8.4289639780        7.5938489105       -0.6387457201
 C        -7.9840616941        8.3843096978       -1.8958775190
 O        -7.4921964223        7.9183942003       -2.9107952038
 C        -8.2383316563        9.8893047852       -1.8827904863
 C        -7.4840343968       10.8366787821       -2.8689191127
 C        -5.9339254314       10.9218193051       -2.5566280171
 O        -5.5581004286       10.1946945410       -1.6245869819
 C        -4.8540067823       11.7653172066       -3.5107389071
 C        -5.5731545624       13.1379635660       -3.5233057185
 O        -6.4449809904       13.2700150046       -4.3539508676
 C        -4.8694565666       14.2929760191       -2.7295788351
 C        -3.5209401139       11.5153387343       -2.9027411440
 C        -4.7713785261       11.2926342605       -5.0686092316
 C        -9.2924236068        8.1278245711        0.5229721973
 C        -7.0667683685        6.7704804556       -0.0269987720
 C        -7.3348688583        1.9914971244       -3.2272974548
 C        -9.6970533323        1.1381804645       -3.7783205140
 C        -7.5317060526       -1.4259060943        3.3928422912
 C        -6.9375806265       -2.3865591802        1.0095420201
 C       -14.6855038101       -2.9728160923        0.4292632127
 C       -12.4310453099       -2.7873810947       -0.6601526440
 C       -15.2520115641        4.2813217354        1.5750808503
 C       -13.6172662865        4.1426898458        3.5828765067
 H       -15.8027793963        4.7436885644        4.7179915007
 H       -16.2599810008        3.1438420229        5.5466284605
 H       -17.3327662197        4.0708348332        4.4779699868
 H       -14.4006450473        1.8860439079       -0.2980917558
 H       -15.7857863555        1.8540276571        0.8513618278
 H       -15.5488520832       -0.3883986056        0.4597701050
 H       -14.7551885305       -0.2010811066        1.9749709024
 H       -11.8084637613       -4.1229169694        1.5934844712
 H       -12.4152379542       -3.9305011066        3.1383406880
 H       -10.3084448760       -3.6168567238        3.7616988715
 H       -10.6423743977       -1.8665142811        3.3678266375
 H        -6.8616647512        0.6283876340        1.6259682282
 H        -8.1299071489        1.6061014016        1.3134294527
 H        -6.7506795808       -0.2506007501       -0.8560405583
 H        -6.7560511632        1.3843838734       -0.8488872739
 H       -10.4360742885        4.4373282105       -3.1122014852
 H        -9.0416578841        3.9777132928       -3.8940183073
 H        -8.0382041076        6.0505212342       -3.2230155338
 H        -7.6095474157        4.8359040347       -2.0281000054
 H        -8.0315916930       10.4496024624       -0.9673726494
 H        -9.3210475642        9.9488409323       -1.9046544573
 H        -7.9653467849       11.8331727557       -2.7359086460
 H        -7.6613950301       10.6487474608       -3.8981223474
 H        -5.3957892297       15.2809084555       -2.8906954134
 H        -3.9385274417       14.2990734939       -3.3080661280
 H        -4.6751182996       14.3229539396       -1.6525181861
 H        -3.6675487648       10.8927262594       -2.1258193751
 H        -3.0370308613       12.4882891507       -2.4928055999
 H        -2.8666045266       11.2443372634       -3.6927973481
 H        -3.8602436952       11.7844356161       -5.3621452943
 H        -5.5012634482       11.7012396024       -5.7151611384
 H        -4.8806291978       10.2327715992       -5.0951773709
 H        -9.1612463223        7.5469163793        1.4721628359
 H       -10.2941188081        8.0694579500        0.2633331596
 H        -8.9902028863        9.1404683898        0.7119372310
 H        -7.4753141922        5.8609519933        0.3684519210
 H        -6.5064916045        7.3750061495        0.7050979998
 H        -6.2561713809        6.5720929188       -0.8118681798
 H        -7.2734598172        2.1390548082       -4.2347060617
 H        -6.6985387341        1.1105584301       -3.0463861137
 H        -6.8230127105        2.9427617887       -2.7734121641
 H       -10.8544788719        0.8185083565       -3.5637963672
 H        -9.2035302859        0.2129193290       -4.2338940595
 H        -9.7744408241        1.7837646139       -4.6779460579
 H        -6.8612192546       -0.5957365519        3.2096082862
 H        -7.2486542204       -2.2884334718        3.9240852670
 H        -8.4086242018       -1.0294550799        3.8472085895
 H        -7.0999098708       -2.2286419440       -0.0902282588
 H        -6.7669929752       -3.3948951314        1.0888403975
 H        -5.9324215303       -1.9574966273        1.3298570730
 H       -14.5317510209       -4.0994372492        0.4229611925
 H       -15.1861758391       -2.8275857502       -0.5152865031
 H       -15.3377307367       -2.8339490919        1.2747795853
 H       -11.3850548610       -2.6475510155       -0.3924941481
 H       -12.5406921549       -2.2813162670       -1.6247297910
 H       -12.6491734235       -3.8099244050       -0.9189122956
 H       -15.1625242451        4.0229796315        0.5265598608
 H       -14.6599208423        5.2614978050        1.7789796374
 H       -16.3055582650        4.4315833015        1.8361441050
 H       -13.7915291837        5.1727169042        3.8926335972
 H       -12.6294457960        4.1588399688        3.0656615524
 H       -13.6027238269        3.5537923215        4.4753241108
 Na      -11.0605430311        1.3572787388        0.3055565805
