117

 C       -16.7520800206        3.7592391983        4.5381432464
 C       -16.0977058739        3.1103843379        3.3519714867
 O       -16.5214334113        2.0655863613        2.9801505243
 C       -14.9322343791        3.8081839687        2.4858243719
 C       -14.1020610153        2.6288380570        1.7947905680
 O       -12.9148485692        2.5612856583        1.9970103201
 C       -14.8555778043        1.5997450968        0.7647840430
 C       -14.8351595568        0.1284182520        1.0488569152
 C       -13.6016268298       -0.5186947533        0.4007912875
 O       -12.8837560721        0.0806819634       -0.3705680519
 C       -13.3354006206       -2.0844429313        0.7034406185
 C       -12.7706443340       -2.3660322735        2.1070571360
 O       -13.1663195696       -1.7062413452        3.0126832873
 C       -11.6602590177       -3.4742272968        2.5386863754
 C       -10.4112410331       -2.7263874349        3.0367293548
 C        -9.3078505500       -2.9423787560        2.0523845265
 O        -9.3421823573       -3.9239154406        1.3015446362
 C        -8.0607604305       -1.9566214274        2.0189184475
 C        -8.7142166076       -0.7267514638        1.4578685116
 O        -9.9274863102       -0.7756102825        1.2482235876
 C        -7.9236419082        0.4853823048        1.1339112661
 C        -7.4929450025        0.6111197046       -0.3915923525
 C        -8.6288286000        0.7450277003       -1.5141855536
 O        -9.7011207597        0.1892813384       -1.2975924858
 C        -8.6257026818        1.6538689975       -2.5901419322
 C        -9.3184969262        2.9021418818       -1.9637291922
 O        -9.6111930646        2.9887900199       -0.8098357559
 C        -9.0553765304        4.1682485499       -2.7439671493
 C        -8.1274269927        5.2533903021       -2.0824755380
 C        -8.9412904938        6.3394954105       -1.2329404377
 O       -10.1494035080        6.3228113202       -1.2669531170
 C        -8.1723288061        7.5992992720       -0.8221306191
 C        -7.7387896855        8.4954209870       -2.0438853823
 O        -7.1148937492        8.0049287611       -2.9389517479
 C        -8.2315787321        9.9564010517       -1.9672355200
 C        -7.4700427691       10.6245246457       -3.1107217523
 C        -5.9899132273       10.7229141215       -2.5446997615
 O        -5.6074864358       10.1689168886       -1.5473886281
 C        -4.9370936303       11.3683947704       -3.5270449730
 C        -5.4315844584       12.8984360729       -3.8804211328
 O        -6.2319891545       13.0953587793       -4.7916236897
 C        -4.9938756349       13.9869347058       -2.9103630187
 C        -3.5074155117       11.3205436122       -3.0783844904
 C        -5.0178185038       10.5130431688       -4.7344112738
 C        -9.1370688344        8.2413134481        0.3603789929
 C        -6.8426683809        7.3362083083       -0.0992778824
 C        -7.1391094121        1.9488796326       -3.1119315393
 C        -9.4565093604        1.2365149351       -3.7978019337
 C        -7.4304606624       -1.8621332474        3.5111020298
 C        -7.0273194408       -2.4375321770        1.0877307377
 C       -14.5821460141       -2.9284178842        0.4968792826
 C       -12.3760946463       -2.5509151592       -0.4397932332
 C       -15.5066764042        4.7084441594        1.4071467619
 C       -13.8741832525        4.6637390051        3.5835047283
 H       -16.4400717116        4.7776127718        4.7663536631
 H       -16.7492036332        3.0202982771        5.3287939702
 H       -17.7799155871        3.9059117437        4.1822337052
 H       -14.5437816689        1.5952088722       -0.1686504287
 H       -15.9342264795        1.9571359739        0.7816653318
 H       -15.8427340715       -0.2513734705        0.8149368322
 H       -14.7232932650       -0.0965254353        2.1360082249
 H       -11.3175032381       -4.1084750033        1.6684364686
 H       -12.2820968188       -4.0284473900        3.3328449551
 H       -10.0805598155       -3.2768018176        3.8806569578
 H       -10.6134475882       -1.6271012486        3.2616929943
 H        -7.0931789347        0.7210032418        1.8929084548
 H        -8.6142476360        1.2939996870        1.2367013781
 H        -6.8724910221       -0.2117490128       -0.7939655967
 H        -6.7575278224        1.4062877374       -0.5252595192
 H        -9.9655563302        4.7401439085       -2.8566318787
 H        -8.8037864323        3.9981428231       -3.8498247546
 H        -7.6675774010        5.8065423889       -2.9563665522
 H        -7.2825238705        4.9480775625       -1.3814898999
 H        -8.1073810051       10.3096147456       -0.9782790145
 H        -9.3120252288       10.0610988250       -2.0989374157
 H        -7.8918523228       11.5253485755       -3.5659459059
 H        -7.6208488970        9.8947232263       -3.8948492824
 H        -4.9735083056       14.9607939589       -3.4125477472
 H        -4.0197841008       13.8514115899       -2.4311269183
 H        -5.6430209579       14.0994369248       -1.9902991953
 H        -2.9888275937       10.8553581709       -3.8562886159
 H        -3.2416843248       10.4750318346       -2.2621608429
 H        -3.1204315872       12.3212361164       -2.9784851325
 H        -4.3765432901       11.0354938581       -5.5408581067
 H        -6.0787464441       10.5079327984       -4.9928848241
 H        -4.6145907727        9.4788448378       -4.3961386586
 H        -9.4847882746        9.3053355893        0.3152363665
 H        -8.4483430737        8.1406382255        1.1456222268
 H       -10.0329396721        7.6586538384        0.6775125316
 H        -7.0090217981        6.9976189212        0.9104676133
 H        -6.1934947748        8.2124438179       -0.1948634538
 H        -6.3330232151        6.5785331285       -0.7809286578
 H        -7.1983275890        2.6226097292       -3.9136699138
 H        -6.5270908940        1.1342926886       -3.5412911316
 H        -6.5372425121        2.5067459658       -2.3199963944
 H       -10.4072268450        0.6552038556       -3.5658955671
 H        -8.9028716541        0.4839440408       -4.3034238906
 H        -9.8375874029        1.9619546393       -4.4093006020
 H        -6.7845214838       -0.9671869583        3.6009737379
 H        -6.9951899848       -2.8407714838        3.5572677808
 H        -8.2642987781       -1.7999786840        4.2591186453
 H        -7.4220334718       -2.8652559081        0.1488689600
 H        -6.3583969658       -3.1410957948        1.4673334673
 H        -6.5534778504       -1.4807987429        0.5634919595
 H       -14.2915401266       -4.0017786388        0.4757452141
 H       -15.0491291938       -2.7685655357       -0.4941836130
 H       -15.3940942266       -2.7674726990        1.1602355709
 H       -11.5975564149       -1.7987704807       -0.5029817693
 H       -12.9150926100       -2.5278910941       -1.4619391101
 H       -12.0075642543       -3.5696915281       -0.2570390053
 H       -16.5495248738        4.8201679388        1.5178905817
 H       -15.1965520105        4.2538449367        0.3678553668
 H       -14.9484759895        5.6079245602        1.5093684108
 H       -14.4663912006        5.4004001307        4.2167215966
 H       -13.0519665861        5.2213109625        3.1853795818
 H       -13.4986864078        3.9075505819        4.1994605275
 Na      -11.2479036648        1.3771657802        0.5344244753
