117

 C       -14.1535104628       -2.4518962802       -5.3596127067
 C       -12.9687406150       -3.1767313810       -4.5819910483
 O       -12.9228249151       -4.3732631521       -4.5130461931
 C       -11.7513323275       -2.2649779502       -4.0396265490
 C       -12.1269032450       -1.4876948158       -2.7266313304
 O       -12.4060399955       -0.3115723265       -2.7578054986
 C       -12.1605575868       -2.1840821442       -1.3929785031
 C       -11.7686188023       -1.3306200764       -0.2756975338
 C       -10.9813907115       -1.9952328224        0.8819414248
 O       -11.5759300331       -2.7740305201        1.6004715134
 C        -9.6359335896       -1.3899364621        1.2503478024
 C       -10.1366470346       -0.1393816779        1.9486745509
 O       -10.9080499336        0.6374740250        1.3842458099
 C        -9.5858684513        0.2308062386        3.4186815305
 C       -10.5120680887        1.3254178231        3.9555102757
 C       -10.1485253612        2.7381031022        3.5273853038
 O        -9.1379380672        2.9867657093        2.7754254338
 C       -10.8662088191        3.9460187635        4.1867293471
 C       -11.6686450008        4.8880708749        3.1009815586
 O       -11.2105800911        5.9725378073        2.7612745198
 C       -12.8961664603        4.1802393490        2.3931646411
 C       -13.0852876413        4.4662723378        0.9054011504
 C       -11.7334564338        4.6869321139        0.2276006337
 O       -10.7958153100        3.9982777753        0.5364156190
 C       -11.5530157002        5.8721032053       -0.8515613132
 C       -10.2053325355        5.9561810435       -1.5996201500
 O        -9.1824806177        5.4503859356       -1.1606045018
 C       -10.2335282875        6.4586823098       -3.0988829871
 C        -9.0397602152        7.4095800912       -3.3031401275
 C        -9.1874240002        8.7693401812       -2.4589009127
 O       -10.2578466578        9.0916745713       -1.9754441648
 C        -7.8852703234        9.6469308804       -2.3269527865
 C        -7.2940961298        9.0908570197       -0.9764921877
 O        -6.4075610485        8.3030799469       -1.2121432846
 C        -7.8617959490        9.2575775094        0.4117963651
 C        -6.8769388347        8.9963097678        1.4943375376
 C        -6.8626489037        7.4410208370        1.6573530217
 O        -7.8955645956        6.8312830414        1.8394770910
 C        -5.5272115877        6.5627816149        1.5834665049
 C        -5.6886911618        5.5595707436        0.3898207787
 O        -6.7116819069        4.8831987552        0.3082001679
 C        -4.6242612900        5.4189864743       -0.7015916955
 C        -4.2843328165        7.5041869624        1.4311881406
 C        -5.5667766174        5.8971267296        3.0183028237
 C        -6.9060037444        9.5567488377       -3.4450381980
 C        -8.4263420118       11.1583323339       -2.1713893286
 C       -12.6564642039        5.4954037190       -1.9560840347
 C       -11.8957055239        7.2725260510       -0.2729598777
 C       -11.7287602585        3.4625092195        5.3560703576
 C        -9.7592684726        4.7881973603        4.8020032908
 C        -8.7739586776       -2.4298220578        1.9829218759
 C        -8.8134062583       -1.0038767592       -0.0090492457
 C       -10.5690108170       -3.4285936829       -3.8726743718
 C       -11.1634947853       -1.3277593672       -5.1436622362
 H       -14.9648992732       -2.1600463410       -4.7071042593
 H       -14.5719271652       -3.1713391900       -6.0564935690
 H       -13.7287776648       -1.4106885664       -5.6633945694
 H       -11.5412494880       -3.1187615862       -1.5001283097
 H       -13.1617583367       -2.6579569520       -1.2989077064
 H       -12.6915277489       -0.9779664683        0.2540843553
 H       -11.0840041757       -0.5795661890       -0.6108550996
 H        -8.5420999053        0.4094473836        3.3686161696
 H        -9.6292557326       -0.6259923781        4.0801150087
 H       -10.6296608438        1.3709488217        5.0844769003
 H       -11.4964985088        1.2092360411        3.5520512115
 H       -13.8554631943        4.3508897359        2.9749553164
 H       -12.8197414702        3.1380282991        2.6220981128
 H       -13.6576224874        5.4443769411        0.6893675830
 H       -13.6322447159        3.6211286864        0.4426017698
 H       -11.0909490864        7.0359477796       -3.3529871001
 H       -10.0182114300        5.6636597404       -3.7913974256
 H        -8.8496136672        7.5339727567       -4.3747723115
 H        -8.1802772600        6.8755424598       -2.9065213506
 H        -8.5584235293        8.3839254170        0.3489392493
 H        -8.5405481546       10.1580010799        0.5426384791
 H        -6.9712709574        9.4479467749        2.5255570684
 H        -5.8049715430        9.3087439867        1.2900273291
 H        -5.1477149051        5.1850564024       -1.6069539979
 H        -4.0897043559        4.5013169028       -0.6061846360
 H        -3.9393015120        6.2194613346       -0.8178588071
 H        -4.2226026676        8.0613747977        2.3540553850
 H        -4.3395005121        8.0898890951        0.6232354160
 H        -3.3143575563        6.9497962522        1.3261131667
 H        -6.4268225683        5.1522468947        3.1909396032
 H        -5.5923262466        6.5348572781        3.8089101518
 H        -4.6186053359        5.3049423217        2.9631866907
 H        -7.4232899841        9.7336705573       -4.3939929790
 H        -6.5640337298        8.5642960558       -3.5706617834
 H        -5.9976443078       10.2062858743       -3.2380913153
 H        -7.8394531059       11.5450910180       -1.2776827906
 H        -9.5397425351       11.1694229970       -1.9003508906
 H        -8.0730757517       11.8193363175       -2.9969132707
 H       -13.4014767500        4.8607722955       -1.5036739357
 H       -12.2322011923        4.9448457461       -2.7701539597
 H       -13.2412502705        6.3480330672       -2.2479462668
 H       -11.2586172076        7.5176238744        0.6146007826
 H       -12.9033973583        7.4018813160        0.0462699429
 H       -11.7021572896        7.9814436751       -1.0025862331
 H       -12.4242942567        2.7342953254        5.0058914262
 H       -12.2570337761        4.4006048365        5.6602443008
 H       -11.1907395217        2.9492874310        6.0881852025
 H        -9.0631067650        4.1586859925        5.4256139178
 H       -10.0054147640        5.7117229727        5.3385306270
 H        -9.0334195143        5.2660703388        4.1669574557
 H        -8.1868224058       -2.9020534800        1.2236285727
 H        -9.3169412119       -3.0982903404        2.6464615273
 H        -8.0549474121       -1.9282172933        2.5591740396
 H        -9.2329718141       -0.2329874427       -0.6505035760
 H        -8.8432569870       -1.8904029679       -0.6436741632
 H        -7.8082829401       -0.7396508718        0.2289620532
 H       -11.0004754276       -4.3654632662       -3.5488046750
 H        -9.7279380216       -3.0809092882       -3.2513357365
 H       -10.2038596878       -3.5928107018       -4.8463622533
 H       -11.8278997773       -0.4828281621       -5.1829586164
 H       -11.1121572853       -1.8429774894       -6.0954268659
 H       -10.1706384325       -0.9496305589       -4.7806658387
 Na       -8.8490869097        4.7885743949        1.3087067654
