117

 C       -17.0676740945        4.1143540262        3.8211782484
 C       -16.2297605181        3.1273508803        3.0737992647
 O       -16.2079098278        1.9452552887        3.2133292710
 C       -15.0550307901        3.8181030577        2.1788975526
 C       -14.1495137719        2.8399108680        1.4499826031
 O       -12.9460168036        3.0923925602        1.2195758062
 C       -14.7318719645        1.7173134660        0.6500182425
 C       -14.6010167700        0.3471963981        1.3921547765
 C       -13.4312550952       -0.5177026722        0.7884851953
 O       -12.5772373673       -0.0564729634        0.0228000112
 C       -13.2696733807       -2.0586847162        0.9957480116
 C       -12.7774739268       -2.2635496850        2.5189076708
 O       -12.6603629092       -1.3775346429        3.3206275663
 C       -12.1892389420       -3.6546283517        2.9893383339
 C       -10.7705530350       -3.4267914499        3.4475243527
 C        -9.8418821851       -3.1615253377        2.1489779727
 O        -9.9180501050       -4.0608351490        1.3191268902
 C        -8.7089785614       -2.1345203291        2.1832767202
 C        -9.0875626658       -0.6986846553        1.7010096152
 O       -10.2522067837       -0.2355569063        1.6494941054
 C        -7.9132812222        0.3271143773        1.3915843604
 C        -7.4282108552        0.3194158935       -0.1791412454
 C        -8.6157255281        0.6268278698       -1.1818832113
 O        -9.6219349032       -0.0739465976       -1.0726410411
 C        -8.4712844914        1.6237863454       -2.3833518550
 C        -9.2646238611        3.0554403317       -1.8835527411
 O       -10.1177421724        2.9794863807       -1.0066673443
 C        -8.7478447806        4.4164014802       -2.5329206448
 C        -8.0296493375        5.1899926921       -1.3625826325
 C        -8.7699929202        6.6736910327       -1.2688360056
 O        -9.9333624037        6.7501462195       -1.6008575184
 C        -7.8795894240        7.9309033014       -0.7419945892
 C        -7.6918325633        8.6957919549       -2.1921952012
 O        -6.7835386466        8.2520773247       -2.8387967287
 C        -8.3902940537        9.9793661562       -2.4932439662
 C        -7.4024326390       10.7115360665       -3.3619132964
 C        -5.8950835784       10.6871533694       -2.6128732716
 O        -5.7455476270       10.3943465237       -1.4766843096
 C        -4.8124749830       11.0197806275       -3.7731090884
 C        -5.1276332900       12.4309997604       -4.5251287724
 O        -5.1766982918       12.4227481843       -5.7677222024
 C        -5.1223447916       13.7601684960       -3.6148013557
 C        -3.3958927216       10.8749604485       -3.2180735016
 C        -5.1429557591        9.8483564133       -4.8341566040
 C        -8.7925105140        8.7200294114        0.3153362885
 C        -6.5257568423        7.5075615221       -0.1981751695
 C        -7.0474329983        1.9184983546       -2.9146746598
 C        -9.4680114030        1.2255465901       -3.4496644356
 C        -8.0976427423       -2.2255290376        3.6334828462
 C        -7.5371400792       -2.7687065392        1.3585492511
 C       -14.7050947305       -2.6285510617        0.7498745015
 C       -12.1059272592       -2.5673533333        0.0174559712
 C       -15.4518710601        4.7758314715        1.0304211900
 C       -14.2089561780        4.6949768343        3.1336747398
 H       -17.6487619690        4.7424638409        3.2166383893
 H       -16.3082874644        4.7947807678        4.2337349440
 H       -17.6579901092        3.6022959312        4.5780424892
 H       -14.1879219804        1.7431089435       -0.3435724118
 H       -15.8385938991        1.8280354627        0.5631546756
 H       -15.5724870748       -0.1219098209        1.0583989155
 H       -14.5286036608        0.2901231153        2.5103226461
 H       -12.1857911213       -4.3198388657        2.1083459776
 H       -12.8013107000       -3.9783453536        3.8932355451
 H       -10.5807746418       -4.3854188488        4.1038765750
 H       -10.7737014308       -2.5934562081        4.1602201317
 H        -7.0315767718       -0.0040631425        2.0109549189
 H        -8.2134386804        1.2824727322        1.5648612843
 H        -7.1748923823       -0.7366061884       -0.4305751811
 H        -6.4792157689        0.9165171627       -0.1893637331
 H        -9.6837638871        4.9402205780       -2.8095284435
 H        -8.1413962187        4.3545100198       -3.4015387005
 H        -6.9598342422        5.2649199048       -1.2810047762
 H        -8.2119123736        4.8573056615       -0.3642478833
 H        -8.3770187327       10.4127796592       -1.5072331515
 H        -9.4317766780       10.0089587419       -2.6616850508
 H        -7.6709374704       11.7154474733       -3.5113469157
 H        -7.3632788273       10.2337776431       -4.3561166989
 H        -5.4699414840       14.6482475172       -4.1180517178
 H        -4.0915810832       14.0849491635       -3.3042561891
 H        -5.5775392050       13.6565197713       -2.5939190557
 H        -2.9243496593       11.8237203830       -3.3079039193
 H        -2.8786488653        9.8980630427       -3.7033236973
 H        -3.4793897586       10.7375572610       -2.2233201024
 H        -4.3196445258        9.9020963874       -5.5473764517
 H        -6.0892188608       10.1726438086       -5.2094000206
 H        -4.9528530787        8.7975098354       -4.4255566473
 H        -8.1536538996        9.3845135021        0.7821364272
 H        -9.1143266238        8.1044644560        1.1180724479
 H        -9.5615509767        9.2297283784       -0.2235484075
 H        -6.6065622993        6.8359763119        0.7623518555
 H        -6.0175057855        8.4823079116        0.0728708070
 H        -6.0519005745        6.8554121460       -0.9643199552
 H        -6.8444592773        1.7797225222       -4.0275815877
 H        -6.3681169293        1.2792488152       -2.3180397368
 H        -6.6048140765        2.8364841991       -2.7105291488
 H       -10.4952806175        0.7182766574       -3.0028369265
 H        -9.2229115827        0.3356614153       -4.1374187962
 H        -9.9083698868        2.0457631927       -4.1275528218
 H        -7.2413626920       -1.5676329640        3.6431160078
 H        -7.5823607663       -3.1852398727        3.6617212984
 H        -8.7937722466       -1.9880141160        4.4352670817
 H        -7.7487314504       -2.7781713432        0.2781763174
 H        -7.3381237599       -3.8201022361        1.6612073029
 H        -6.5545060697       -2.1706187601        1.4661264337
 H       -14.7228580544       -3.6750846175        0.8011264243
 H       -15.2279746464       -2.3094757499       -0.1692650044
 H       -15.4684300012       -2.2954004435        1.4792853395
 H       -11.1855915759       -2.2153507288        0.4088857465
 H       -12.3031821846       -2.1670575329       -1.0446733822
 H       -12.0541690157       -3.6868483358        0.0921495506
 H       -14.6676057946        5.0203611520        0.3193377457
 H       -15.7447502519        5.6649260677        1.7101002604
 H       -16.3589389827        4.3642172498        0.5688624419
 H       -14.7857764375        5.6372795769        3.3884382361
 H       -13.3946202922        4.8852582920        2.5309132377
 H       -13.7902427748        4.2066334498        3.9683120714
 Na      -11.1735669496        1.6207450421        0.2663990328
