117

 C       -17.1137946820        4.1235666526        3.2807580025
 C       -15.8902261368        3.3272157357        2.9823877567
 O       -15.7487541692        2.1960661263        3.3604483712
 C       -14.8251167249        3.9760771829        1.9322879315
 C       -14.0093116892        2.7822152068        1.3558267650
 O       -12.7933659113        2.7351018988        1.5748371192
 C       -14.7050292194        1.6143991653        0.6388338278
 C       -14.6849609634        0.2348669409        1.2009334895
 C       -13.6526415130       -0.7036515097        0.4722150844
 O       -12.9370729849       -0.3633582788       -0.4213049599
 C       -13.6989305550       -2.1704403859        0.9382816541
 C       -12.8110033704       -2.1544208517        2.4320880069
 O       -12.7223479199       -1.0736993090        2.9150864797
 C       -12.2915916974       -3.3703383525        3.2085504965
 C       -10.8687766029       -3.2435906641        3.6223121300
 C        -9.8636175615       -3.1764770944        2.3526055335
 O       -10.2538245248       -3.7185090507        1.2861194583
 C        -8.6939288582       -2.2806959065        2.3947792620
 C        -9.1482948501       -0.6877819966        1.8226059615
 O       -10.3626190548       -0.4231830061        1.8195272538
 C        -8.0685241173        0.3747113566        1.6503780648
 C        -7.6866244660        0.3744973199        0.0979248357
 C        -8.8443956682        0.6624380913       -0.8812657210
 O        -9.9153664314        0.1491930277       -0.8586184151
 C        -8.6074416667        1.7166292906       -1.9912304263
 C        -9.2465814933        3.1078002604       -1.6006377262
 O       -10.1389257499        3.1507206890       -0.7787285290
 C        -8.7307146582        4.3619951670       -2.3018253392
 C        -7.9062623424        5.3257421035       -1.3536892209
 C        -8.6959240384        6.5976935350       -1.2071181304
 O        -9.9277731835        6.6273847969       -1.4035273424
 C        -7.9724297364        7.7531205077       -0.5850871800
 C        -7.6933715875        8.6176987828       -2.1297835823
 O        -7.1287702236        7.9551975901       -2.9241390243
 C        -8.2227426766       10.0126933645       -2.6006278554
 C        -7.2863712388       10.5852328559       -3.6900081706
 C        -5.8741780011       11.1236523259       -3.1218221563
 O        -5.7469030018       11.3473718424       -1.9737515609
 C        -4.6474228151       10.9215262513       -4.1474796159
 C        -4.6351463300       12.3356979526       -5.0176956304
 O        -4.5475182095       12.2933876738       -6.2229837811
 C        -4.6587300023       13.5431392548       -4.1019833189
 C        -3.2983356134       11.1455745973       -3.2187491218
 C        -4.6848645281        9.5348599329       -4.9384759349
 C        -8.7318697618        8.6439616276        0.3997314113
 C        -6.4056329708        7.5147543033       -0.0214803213
 C        -7.1048062872        1.7058618442       -2.4153309596
 C        -9.4444697346        1.1918615284       -3.3289927046
 C        -8.1273210759       -2.0671103946        3.8263351162
 C        -7.5504371281       -2.8928246952        1.6084825358
 C       -15.0410227964       -2.8499579603        1.3954983888
 C       -12.8269079970       -3.0039951302       -0.1703149202
 C       -15.4362443832        4.7765058994        0.7441861696
 C       -13.9440051089        5.0874728674        2.5911041341
 H       -17.8054202831        3.8782817502        2.4938146546
 H       -17.0246723976        5.2266120107        3.1422038382
 H       -17.5490347998        3.7503560115        4.2343912111
 H       -14.4255553113        1.6300806754       -0.3629175370
 H       -15.8014607764        2.0242136465        0.6668982880
 H       -15.6132939719       -0.3857263224        1.1313578644
 H       -14.4620457812        0.2460567239        2.3058330847
 H       -12.4002793921       -4.2410640219        2.4879831758
 H       -13.0040792807       -3.6203226806        4.1138875185
 H       -10.5553204094       -3.9605396917        4.4582739072
 H       -10.7813980098       -2.2877700988        4.1679347844
 H        -7.2577454528        0.1022626761        2.3698391532
 H        -8.3888368801        1.2995472508        1.8229826051
 H        -7.2791728898       -0.6009987842       -0.0490133684
 H        -7.1210732593        1.3175780739       -0.0605594138
 H        -9.6525956740        4.9501300476       -2.6059349860
 H        -8.1162624641        4.0133099320       -3.1379999470
 H        -6.8770729434        5.6178876527       -1.7435876925
 H        -7.4714870217        4.9317334099       -0.4416715831
 H        -8.3064891462       10.6401006527       -1.7276838853
 H        -9.2065226159        9.9127382175       -2.9958874041
 H        -7.8468005610       11.3282935902       -4.1398277564
 H        -6.9018344802        9.9252503373       -4.4833176182
 H        -5.4152829786       14.2168730841       -4.3830384588
 H        -3.7760938849       14.1478633921       -4.2854646097
 H        -4.7714455147       13.3783833945       -2.9991667955
 H        -2.5253588943       11.7475351841       -3.6842000668
 H        -3.0137913765       10.0894576527       -2.9583551762
 H        -3.5665109500       11.3844128026       -2.1763221984
 H        -3.8326199398        9.4251300971       -5.7078058282
 H        -5.5267302061        9.5719691577       -5.6601956153
 H        -4.7228774378        8.7333392942       -4.1029368002
 H        -8.0668736616        9.4399600649        0.8496596318
 H        -9.2539198311        8.0647788191        1.1377233515
 H        -9.4138816608        9.1850437523       -0.2404273441
 H        -6.4720430834        6.8510520844        0.8290586489
 H        -6.0818354372        8.4878487258        0.3352274661
 H        -5.6531054678        7.1823598039       -0.7953899557
 H        -6.8809010223        2.5406013712       -3.0362412063
 H        -6.8276798043        0.8605569469       -3.1149497842
 H        -6.3440839858        1.7351981506       -1.6141389918
 H       -10.5426784022        1.3902914715       -3.2092950747
 H        -9.4279911908        0.0850601566       -3.6290813904
 H        -9.1542921141        1.4809357394       -4.3637821193
 H        -7.1076580577       -1.6403159126        3.6780675002
 H        -8.1009629197       -3.0381292026        4.3587044411
 H        -8.6918602010       -1.3660611068        4.5374822950
 H        -7.9082187981       -3.2544728800        0.6578731714
 H        -6.8660561713       -3.5796751248        1.9844158788
 H        -6.7492106048       -2.0444251859        1.5448405682
 H       -14.9098368280       -3.8972496430        1.5016568183
 H       -15.8743158056       -2.8717555295        0.6294211086
 H       -15.4312422979       -2.5536036655        2.3695940002
 H       -11.8630394517       -2.5981261284       -0.1500322985
 H       -13.3228547895       -2.8743877716       -1.1873939894
 H       -12.7884444796       -4.0788672308        0.0280880301
 H       -14.6833359369        5.3205585479        0.2650039187
 H       -16.2151864782        5.3720290367        1.3500360907
 H       -16.0581518293        4.2196326561        0.0928636637
 H       -14.4166061689        5.8278978181        3.2883318125
 H       -13.4059394760        5.5767455459        1.8289859227
 H       -13.3265295659        4.4781592780        3.1423338997
 Na      -11.1314782339        1.3159781506        0.7709668050
