117

 C       -17.2069051163        4.2197640925        3.2189682536
 C       -15.9036529739        3.4017986906        2.8444833757
 O       -15.5768020504        2.3993098884        3.5171289235
 C       -14.7883902894        3.9235576124        1.8501922520
 C       -13.9184538468        2.7139879810        1.4280015581
 O       -12.7290980818        2.5836784742        1.5851371666
 C       -14.6214643661        1.6526936697        0.5896534260
 C       -14.7978328520        0.2470286245        1.0488133046
 C       -13.7410401752       -0.7889980688        0.4310762052
 O       -13.1878653282       -0.4460633244       -0.5622178559
 C       -13.6586549605       -2.2060985526        1.1097232295
 C       -12.8948257541       -2.0613581888        2.3778958093
 O       -12.6759978527       -1.0129476306        2.9403433750
 C       -12.3580216517       -3.3493872287        3.0791042887
 C       -10.9325918181       -3.1265041616        3.4809840344
 C        -9.9876815154       -3.0430809208        2.2724329115
 O       -10.2258264538       -3.7507269957        1.3447552024
 C        -8.6457502353       -2.1313436657        2.4834409517
 C        -9.0895854663       -0.7700919795        2.0718576618
 O       -10.2643748563       -0.6642298309        1.9087508396
 C        -8.1898244649        0.3601705420        1.6861048974
 C        -7.6856137735        0.3292220369        0.1330378877
 C        -8.8425188056        0.7103245464       -0.9304257117
 O        -9.8628900815        0.1272039074       -0.8454360497
 C        -8.4498854035        1.6638509627       -1.9586903486
 C        -9.2023733291        3.0916734239       -1.4452286123
 O       -10.0881349516        3.1663578950       -0.6295601760
 C        -8.8102551295        4.2547428625       -2.3456825546
 C        -7.9227818449        5.2761787670       -1.5373948588
 C        -8.8056894097        6.4903122963       -0.9961546066
 O        -9.9925649904        6.5274512690       -1.3098315554
 C        -7.9764278016        8.0010230225       -0.7067292375
 C        -7.6847078891        8.5167787664       -2.1256592493
 O        -7.0232397256        7.9582099186       -3.0018992836
 C        -8.1182001315       10.0097640112       -2.5594993272
 C        -7.1679582752       10.3549751105       -3.6899154265
 C        -5.8175888195       10.8811476582       -3.1400607040
 O        -5.7136717769       11.6680755431       -2.1946651402
 C        -4.6185460473       10.9694936232       -4.1165084369
 C        -4.5353543452       12.2947841794       -5.0400265896
 O        -4.4739715013       12.1907437555       -6.2251874720
 C        -4.5385990301       13.6038660526       -4.3517316996
 C        -3.3205524144       11.0645582768       -3.3338345282
 C        -4.5780363903        9.6975209818       -4.8422838790
 C        -8.6830048627        8.8536660225        0.3315505998
 C        -6.5453457075        7.5010092242       -0.1505727938
 C        -7.0156543387        1.7417940995       -2.4576737088
 C        -9.4684138889        1.3828960654       -3.0339484095
 C        -8.1836226514       -2.0843020416        4.0094013259
 C        -7.5342066250       -2.7092313952        1.5713912493
 C       -15.1320335674       -2.6180257030        1.3969161591
 C       -13.0943790525       -3.1964095156        0.1052209453
 C       -15.4634339008        4.6340650147        0.5605567996
 C       -13.9706845733        5.0247478460        2.6116938097
 H       -18.1505081628        4.0765974049        2.6631360901
 H       -17.0519108386        5.2826034997        3.2052856153
 H       -17.3587272091        3.8203494001        4.2074229449
 H       -14.1895829237        1.7410150060       -0.4669882405
 H       -15.6701967732        2.1288198200        0.4747408418
 H       -15.7548642407       -0.2493582902        0.9098298487
 H       -14.6163348907        0.2527240946        2.1446694573
 H       -12.3622600094       -4.2541686398        2.4238299282
 H       -12.9625620276       -3.6467030347        3.9791088604
 H       -10.5185527510       -3.8481685763        4.2044033389
 H       -10.8223988771       -2.1395542280        4.1033984107
 H        -7.3487521260        0.4280004277        2.3692499164
 H        -8.7233837321        1.3281069325        1.8127140050
 H        -7.4403774188       -0.6988021993        0.0521492855
 H        -6.9214707748        1.1078585332        0.0582828373
 H        -9.6858485948        4.7779739686       -2.6652907779
 H        -8.2143970478        3.7183695157       -3.1494933017
 H        -6.9994524568        5.6641787724       -1.9712431312
 H        -7.4520830361        4.7721691471       -0.7637276173
 H        -8.0886409551       10.6608110168       -1.6731184251
 H        -9.1296972162        9.9227982751       -2.9284418864
 H        -7.5923532315       11.0440718393       -4.4028822371
 H        -6.7846306517        9.5494902880       -4.2576372040
 H        -5.4077392128       14.2769220622       -4.5841194344
 H        -3.6852231702       14.2305440353       -4.6237330609
 H        -4.5931673035       13.5091819169       -3.2579298726
 H        -2.4479974163       11.1931976610       -3.9713980271
 H        -3.2418003401       10.1988881298       -2.8578284152
 H        -3.3966080190       11.7180740276       -2.3615768981
 H        -3.7274228849        9.5322932965       -5.5800050698
 H        -5.3996417961        9.8056725047       -5.5964166247
 H        -4.7481239857        8.9635938102       -4.0778729105
 H        -7.9767256732        9.1575474384        1.1274783635
 H        -9.3329579680        8.1769333824        0.7447309675
 H        -9.1635480092        9.6931369301       -0.0056423668
 H        -6.9377983743        6.7735486856        0.5862764683
 H        -5.9522252788        8.3005351597        0.4059665550
 H        -5.8048256314        7.0770140373       -0.9576620642
 H        -6.9018332710        2.3263872214       -3.3154850747
 H        -6.6980497040        0.7681033562       -2.8522889917
 H        -6.2478052608        2.0514016451       -1.6614732743
 H       -10.4929332315        1.7499547128       -2.8425046242
 H        -9.5936458297        0.3240466663       -3.4696220097
 H        -9.0877049609        1.6981368447       -4.1097814563
 H        -7.2436593496       -1.4998872236        4.0790311952
 H        -8.1161256069       -3.0843990083        4.3881518583
 H        -8.9148187018       -1.6004366146        4.6986677221
 H        -8.0116287528       -3.0704048457        0.6203791697
 H        -7.0728431435       -3.5795939678        1.9939149007
 H        -6.5596779852       -2.2008496564        1.4951898462
 H       -15.3420225556       -3.6900039689        1.5486531492
 H       -15.7846178072       -2.4578894048        0.5222507673
 H       -15.4759856627       -2.1894452592        2.2836300828
 H       -11.9526382899       -3.0334144154        0.2053584550
 H       -13.4424353714       -2.8939989160       -0.8850247697
 H       -13.3735904708       -4.2417760399        0.2350101408
 H       -14.7709374454        5.4236374253        0.1474779869
 H       -16.3917393311        4.9648010458        0.9183351601
 H       -15.8158560059        3.8967092276       -0.2109627549
 H       -14.4763173456        5.7518607271        3.1330173448
 H       -13.4277431073        5.5021762795        1.7732323304
 H       -13.3281312622        4.4837293469        3.3142929537
 Na      -11.2160978035        1.2104891856        0.8274937684
