117

 C       -17.0437511561        4.2885517245        2.9552649566
 C       -15.8701042167        3.3890815430        2.8734609400
 O       -15.4588176325        2.6552828456        3.7046686681
 C       -14.8222182363        3.9205230279        1.6592325863
 C       -14.0235579358        2.6740466543        1.3005456579
 O       -12.8615288875        2.4774665956        1.7015658031
 C       -14.5276346574        1.7430606602        0.2809824160
 C       -14.7150676847        0.3757243135        0.9946682509
 C       -14.0191323324       -0.7987287162        0.3421644275
 O       -13.2652756681       -0.5531157508       -0.6127149835
 C       -14.0231680081       -2.1529979339        1.1515026155
 C       -12.9945720239       -2.0217752662        2.4573437415
 O       -12.9006003230       -0.9062837349        2.8698225548
 C       -12.4179290138       -3.2686177471        3.0061180889
 C       -10.9401350322       -3.1041671017        3.5955552462
 C        -9.8332888331       -3.1263697543        2.4321370358
 O       -10.0105409361       -3.7214640327        1.3726216104
 C        -8.6624896776       -2.1637889005        2.6504736397
 C        -9.1662787139       -0.8023361162        2.1296117853
 O       -10.3777766026       -0.5701476135        2.0159337988
 C        -8.1680272265        0.3033783042        1.7479436466
 C        -7.6370410486        0.3860056183        0.2274904529
 C        -8.6890975338        0.5821233943       -0.7781245497
 O        -9.7768585275       -0.0276941580       -0.5874411822
 C        -8.5113398677        1.6168673958       -1.9420541907
 C        -9.1533905765        3.0022126264       -1.2723592496
 O        -9.7017073876        3.0019630606       -0.1964043562
 C        -9.0185590567        4.3136753616       -2.2232188557
 C        -8.1705941777        5.3737929703       -1.5801663934
 C        -8.8977870000        6.6158869700       -1.0296483579
 O       -10.1091004573        6.5530972948       -0.8346013252
 C        -7.8467326103        7.9624878142       -0.7939955316
 C        -7.4123070182        8.4903269485       -2.3199578681
 O        -6.8770898450        7.6669323882       -3.0276469675
 C        -7.7450138087        9.8802091138       -2.6103488329
 C        -7.1473230670       10.4790496555       -3.8367594188
 C        -5.7001257789       11.2599637950       -3.3269125973
 O        -5.7845301063       12.0153624779       -2.4128991968
 C        -4.3756356198       11.0814637588       -4.1696930551
 C        -4.2921032957       12.1705062646       -5.2033368874
 O        -4.4553868930       11.9687690675       -6.3976191746
 C        -4.3792647611       13.6060126733       -4.7153589064
 C        -3.1815608805       10.9519002859       -3.1742631431
 C        -4.3848858898        9.8084201873       -5.0531391933
 C        -8.8966338116        8.8721946941        0.0105809668
 C        -6.5545770099        7.4036432886        0.0047637615
 C        -7.0840416809        1.8587368127       -2.3475887581
 C        -9.5298152097        1.3578140668       -3.1870724309
 C        -8.0729324310       -2.1253096782        4.0878350314
 C        -7.4901948554       -2.6874828099        1.8387181037
 C       -15.5269286858       -2.4863649599        1.6205013687
 C       -13.4766991722       -3.2815842318        0.2361259251
 C       -15.4669354053        4.6498628979        0.5126687031
 C       -13.8452216203        4.8953483051        2.4137865642
 H       -17.7378150273        4.0891915448        2.1712987074
 H       -16.6009678247        5.2676790427        2.6851608023
 H       -17.6178255467        4.3009264467        3.8868520925
 H       -13.7786953328        1.6847911123       -0.4934111808
 H       -15.4040320165        2.1086431596       -0.2018518724
 H       -15.7494625599        0.0370257143        0.9277522643
 H       -14.4267741346        0.2418924021        2.0178351122
 H       -12.5118267559       -4.1903542362        2.5030324397
 H       -13.0774719036       -3.5031107307        3.8322381981
 H       -10.7012399970       -3.8914497296        4.3234764400
 H       -10.8192867415       -2.2422297223        4.1404256916
 H        -7.1751373581        0.3031900390        2.3233695423
 H        -8.5240985993        1.3138213931        1.9492874475
 H        -7.1353665696       -0.5962882003       -0.0054583125
 H        -7.0039477452        1.2692898211        0.2971580068
 H       -10.0063541783        4.8575744062       -2.2498276982
 H        -8.6292064088        3.9816143780       -3.1297775972
 H        -7.6880130349        5.8501851459       -2.4723030964
 H        -7.2168360508        4.9215597438       -1.1577597619
 H        -7.2728741472       10.3345982488       -1.6780114483
 H        -8.8829551143        9.9291885126       -2.5483079857
 H        -7.7339665788       11.4049156416       -4.0484915324
 H        -6.9932541897        9.9225884462       -4.8066373885
 H        -5.2773299395       14.0506224941       -5.0538644003
 H        -3.6385757579       14.3531843010       -5.0225761019
 H        -4.5768280893       13.6883721166       -3.6345588535
 H        -2.3857575962       10.3916388131       -3.7168338710
 H        -3.2913428060       10.4184656615       -2.1335697559
 H        -2.8754062451       11.9336277594       -2.8250700400
 H        -3.4414134498        9.8664409599       -5.4987468004
 H        -5.0002244833        9.8406644159       -5.8735659767
 H        -4.5779898537        8.9484712256       -4.4336997123
 H        -8.5059455084        9.0792158543        1.0454759165
 H        -9.8547559396        8.3139738308        0.1811788441
 H        -9.1977082912        9.8635566664       -0.4319980461
 H        -6.9065872221        7.1297230319        0.9919732924
 H        -5.8344395992        8.1871638639        0.0826916491
 H        -6.0380177225        6.6816303456       -0.5677465270
 H        -7.0148270862        1.9600920986       -3.4436955488
 H        -6.4555279709        0.9769087489       -2.1894808210
 H        -6.6407686999        2.6533829442       -1.8524685267
 H       -10.5205407554        1.1188883792       -2.9478010921
 H        -9.1290202812        0.6210425973       -3.7829871752
 H        -9.4904802888        2.0311792543       -3.9200208028
 H        -7.3440369935       -1.3804372012        4.2290374170
 H        -7.7958589622       -3.1105858058        4.4411229913
 H        -8.8149663556       -1.8709857972        4.8295976793
 H        -7.7383196969       -2.6014234643        0.8355473640
 H        -7.2863517317       -3.7511448734        1.9821126030
 H        -6.4858592480       -2.2831033188        2.0975480361
 H       -15.5219092091       -3.3120608806        2.2875247670
 H       -16.1766316996       -2.8764952917        0.8532807949
 H       -15.9214438076       -1.7117153594        2.3077090250
 H       -12.4613742444       -3.1331276787        0.2589659915
 H       -13.8346042271       -3.2877575907       -0.8093016832
 H       -13.7564469606       -4.2635383198        0.6477684797
 H       -14.6794266773        5.2784882338        0.2283953776
 H       -16.5048545970        5.1474716672        0.6112775138
 H       -15.6548888307        3.9723780492       -0.2723451245
 H       -14.3850578064        5.9605449742        2.4957830756
 H       -13.0314083993        5.1942312211        1.7790959740
 H       -13.6898574778        4.5045442639        3.4189819794
 Na      -11.4664908078        0.9627181521        0.6698078538
