117

 C       -17.1754105419        4.3034350506        2.8549792198
 C       -15.7446353541        3.6962800394        2.7859859801
 O       -15.4861327592        2.7988826560        3.5300609390
 C       -14.6319911263        4.1525143847        1.6229238962
 C       -13.9783800179        2.8060368493        1.1448129933
 O       -12.8947775133        2.4463941412        1.5306266805
 C       -14.5566114772        1.7318420290        0.1646876846
 C       -14.8865415208        0.3891197517        0.8050764366
 C       -14.0327528791       -0.8374965161        0.4948980151
 O       -13.1164600090       -0.7246070968       -0.2861190387
 C       -14.2654147235       -2.2363300439        1.1630590402
 C       -13.1978545737       -2.0102797028        2.3070406334
 O       -13.0756069661       -0.8940668252        2.9484552875
 C       -12.5280100159       -3.2601688039        3.0309366592
 C       -11.2103623945       -3.0204379689        3.6055407804
 C        -9.9444446186       -3.1571540196        2.6188970969
 O        -9.9718816440       -3.8338230587        1.6370830761
 C        -8.6144766077       -2.1496982512        2.6802804152
 C        -8.9637260727       -0.7060667256        2.1491374483
 O       -10.1139688625       -0.3787897059        2.1365547588
 C        -7.9516864750        0.3480658911        1.8818063617
 C        -7.6066108601        0.4829015284        0.3712521949
 C        -8.7114501006        0.4776713293       -0.6128998909
 O        -9.6863725375       -0.2331402427       -0.6123005267
 C        -8.7377167162        1.5680753803       -1.8139449942
 C        -9.3498288021        2.8986716312       -1.1512570664
 O        -9.4541794596        2.8288104882        0.0836511594
 C        -9.5701031963        4.1835700562       -1.8444204291
 C        -8.3244749112        5.1934473446       -1.6504058721
 C        -8.9201337891        6.5247681446       -1.1324398327
 O        -9.9477552531        6.4498726332       -0.5339881329
 C        -7.8404146830        8.0405273618       -0.9545004964
 C        -7.3992760472        8.5262146398       -2.2884095419
 O        -6.7630539219        7.7195874014       -2.9381580629
 C        -7.6273453462       10.0012896216       -2.6320507828
 C        -6.9074260295       10.3634676522       -3.9122502495
 C        -5.6713633611       11.2965098545       -3.5238433273
 O        -5.6175130002       12.2808344383       -2.7926418946
 C        -4.3308223738       10.9857690253       -4.3421934688
 C        -4.1303549958       12.2172105995       -5.4497353856
 O        -4.2538989213       12.0474143908       -6.6529483780
 C        -4.0340342170       13.6053125368       -4.9427406790
 C        -3.2335296127       11.2505332669       -3.3137735108
 C        -4.2209311728        9.4782326006       -4.8603737639
 C        -8.8140364718        8.9562302032       -0.2112850009
 C        -6.7011595193        7.6556148424        0.2029863139
 C        -7.2215956746        1.9664265492       -2.2036301542
 C        -9.3642685560        0.9050040168       -3.0237116605
 C        -8.3039803721       -1.9243500388        4.0886362176
 C        -7.4164302763       -2.7463430651        1.8611724737
 C       -15.5634376547       -2.5398759769        1.9190749430
 C       -13.9863142701       -3.3544609210        0.0787601240
 C       -15.4396458560        4.7846275628        0.4231489875
 C       -13.5122362314        4.9681082739        2.2728076758
 H       -17.8067955015        4.2424551315        1.9029926303
 H       -17.1922806385        5.3399731218        3.2445725411
 H       -17.7672368006        3.6959007938        3.5491009320
 H       -13.7550220429        1.7140656238       -0.6686605655
 H       -15.4533390132        1.9836636187       -0.3851890300
 H       -15.9052238358        0.1676359640        0.4651543887
 H       -14.9396898670        0.2827767664        1.9261125457
 H       -12.4123923966       -4.1949399488        2.3750288534
 H       -13.1688901686       -3.7998672605        3.7918659325
 H       -10.9864829314       -3.6334943866        4.4939530504
 H       -11.1134802500       -1.9083687008        4.0148461087
 H        -7.0176117954        0.2499400276        2.2384392694
 H        -8.2027712187        1.3925671515        2.2415926842
 H        -7.1279943872       -0.4496438085        0.0788442970
 H        -6.9181558817        1.3466173484        0.3747913091
 H       -10.4409486425        4.6614988510       -1.4563312355
 H        -9.5617699088        3.8672676846       -2.9643251018
 H        -7.6035853741        5.0845073397       -2.5175572775
 H        -7.7104318353        4.8399294976       -0.8107939287
 H        -7.0585381134       10.3437234120       -1.7948042836
 H        -8.6532192654       10.2590186919       -2.6742855978
 H        -7.4294596537       11.1664318467       -4.4231779570
 H        -6.6437765875        9.6101627055       -4.5703648199
 H        -4.9013537574       14.1638014576       -5.3811765637
 H        -3.2386644474       14.1009587073       -5.4476645884
 H        -4.1356024318       13.9108294671       -3.9592430580
 H        -2.2704062382       10.7850630977       -3.5789932517
 H        -3.3080610774       10.6968359100       -2.3650777182
 H        -3.2413718021       12.2466303549       -3.0893804330
 H        -3.1897036112        9.4599682989       -5.2829386382
 H        -4.9864572227        9.2222572931       -5.7326211200
 H        -4.4987668525        8.7617799348       -4.0368931082
 H        -8.7576696813        8.8109471656        0.8037323679
 H        -9.8738306128        8.7666127454       -0.5411815477
 H        -8.7207374587       10.0341589937       -0.3912425476
 H        -7.2456776592        7.2728878072        1.0769840181
 H        -6.0615430694        8.4616589205        0.5861502970
 H        -6.1202270714        6.9110305851       -0.2819029283
 H        -7.2573890330        2.6572196418       -3.1055113747
 H        -6.5968571102        1.1381858306       -2.4865850872
 H        -6.7197923575        2.5526644525       -1.3846464259
 H       -10.3298097157        0.2559011018       -2.6964917475
 H        -8.7149265933        0.3647681943       -3.7947072510
 H        -9.8882225222        1.6561887564       -3.7216908461
 H        -7.5283668716       -1.1079936361        4.2757482510
 H        -8.0586351811       -2.7937614826        4.7400764463
 H        -9.1774620531       -1.4823521051        4.6064701743
 H        -7.7240475974       -2.9119174971        0.7594926363
 H        -7.0121366073       -3.7512269507        2.2246527006
 H        -6.5425859348       -2.0910126581        1.8948079840
 H       -15.6508846941       -3.4758050219        2.5959497994
 H       -16.3395372903       -2.6779322344        1.1642656263
 H       -15.7850441692       -1.7011227101        2.5613984606
 H       -13.2324941225       -3.0506202078       -0.7104978457
 H       -14.8937604170       -3.3879326092       -0.4504378760
 H       -13.9197882486       -4.3304119440        0.5333503616
 H       -14.9558172416        4.9919804170       -0.5809595504
 H       -15.6788536543        5.7321602213        0.8034531995
 H       -16.4476678674        4.3471035704        0.3489664105
 H       -13.8300078840        5.8605727465        2.6154932415
 H       -12.9201131243        5.2837952396        1.4291846092
 H       -13.0088025455        4.4421513455        3.0798321263
 Na      -11.6859595182        0.7091356143        0.5081866485
