117

 C       -17.0588949851        4.3481557610        2.7219685166
 C       -15.7620995283        3.6821219595        2.6905787053
 O       -15.3117832996        2.8253508940        3.4139136468
 C       -14.6738301454        4.1317159751        1.6150679869
 C       -13.9611695310        2.7071719469        1.1525459523
 O       -12.7942753829        2.6158574529        1.4414494121
 C       -14.8071104478        1.7412586011        0.1951770706
 C       -15.1871171129        0.3718935817        0.7444574965
 C       -14.1202248177       -0.8038209635        0.4730015554
 O       -13.0732051370       -0.6620716151       -0.2362905314
 C       -14.3495826649       -2.1777078097        1.1996719801
 C       -13.2653643820       -2.1344456123        2.3725343290
 O       -13.0698054229       -1.0560385373        2.8511768148
 C       -12.4142347189       -3.3648418599        2.9261932563
 C       -11.1304164159       -2.7992096511        3.5184664094
 C        -9.9513407777       -3.0095284172        2.5377532368
 O       -10.0480036618       -3.9672415928        1.7920301135
 C        -8.6911248726       -2.0753732175        2.7655417543
 C        -9.0800425235       -0.6785370540        2.2160881364
 O       -10.2208088714       -0.2635752721        2.0932307913
 C        -7.8500807082        0.3425831174        1.9075654941
 C        -7.4434952754        0.3632030995        0.4411875196
 C        -8.6526542456        0.4264238923       -0.5544342086
 O        -9.6188599931       -0.3849388900       -0.3999199977
 C        -8.7844174457        1.5184768037       -1.7593860137
 C        -9.3101399163        2.7877225355       -1.0971684964
 O        -9.5050253147        2.6631134769        0.1277468301
 C        -9.6330650416        4.2252561938       -1.7773837060
 C        -8.3532068204        5.1701469251       -1.6608387516
 C        -8.7980016829        6.5908651788       -0.9223233789
 O        -9.9034531540        6.6159338530       -0.4799568191
 C        -8.1244377806        7.8803555581       -0.8403458493
 C        -7.3091398782        8.5296351556       -2.1271074755
 O        -6.7603655986        7.6782243802       -2.8724155631
 C        -7.5376989407       10.0386821715       -2.5815900941
 C        -6.8556409872       10.3331114650       -3.9442417765
 C        -5.6220538991       11.3813879061       -3.7918352723
 O        -5.8546377125       12.2505374714       -2.9589472261
 C        -4.1968323587       11.0912656708       -4.3707444966
 C        -4.1251656961       12.1479009565       -5.5533792024
 O        -4.1465389764       11.7813728887       -6.7170892261
 C        -3.8918600535       13.5627054425       -5.0412244013
 C        -2.9289220216       11.2955520514       -3.4149223443
 C        -4.0445805291        9.6759598894       -4.9336792462
 C        -9.0729899760        9.0585958972       -0.1786597793
 C        -6.7419634705        7.6002144233       -0.0553721498
 C        -7.2926866375        2.0698479527       -2.1409992735
 C        -9.4287049854        0.9253981381       -3.0177057436
 C        -8.3674897406       -1.8675895353        4.2729065712
 C        -7.5898271674       -2.7545026733        1.9333204645
 C       -15.6527385016       -2.3977189867        1.9599333556
 C       -14.1260195519       -3.3356704114        0.2611499121
 C       -15.3160039723        4.8003088905        0.3711317588
 C       -13.5100240315        4.9529125029        2.1679882173
 H       -17.5358172177        4.4618093809        1.7333351431
 H       -16.8865521815        5.3374352923        3.1727214099
 H       -17.8430907867        3.9068656090        3.3393035127
 H       -14.0992367754        1.7000078765       -0.7965463244
 H       -15.6944032534        2.2079550017       -0.2027705043
 H       -16.1303749019        0.0579903952        0.2586766287
 H       -15.3578471566        0.2653699869        1.8306682435
 H       -12.2455303618       -4.1340566740        2.1186133190
 H       -12.8523651987       -4.0609572938        3.6004452040
 H       -10.6952245792       -3.4157382768        4.3659114666
 H       -11.2278903231       -1.7661470459        3.9167239828
 H        -6.8719471112        0.1875845987        2.4045066588
 H        -8.0787842492        1.4223730215        2.2410419191
 H        -6.9282104208       -0.5981691900        0.1683406016
 H        -6.7778767472        1.1828901979        0.3302458661
 H       -10.3726832697        4.6607111306       -1.0735929589
 H        -9.9190077525        4.2684171707       -2.8156771601
 H        -8.0844262364        5.3697417662       -2.6388632644
 H        -7.5073816049        4.6665436490       -1.2487281683
 H        -7.1298805324       10.6119392854       -1.7873724659
 H        -8.6009658188       10.0307794684       -2.8085752327
 H        -7.5219634262       11.0440686847       -4.4452365556
 H        -6.6496510382        9.4996970369       -4.5430631069
 H        -4.5115874181       14.3695386439       -5.4562486203
 H        -2.9003328873       13.8272650029       -5.4585411852
 H        -3.9662874271       13.8201004572       -3.9961735915
 H        -1.9936847248       11.2647876426       -3.8949243340
 H        -2.7161788224       10.3754237074       -2.7965439389
 H        -3.0015007145       12.1933147166       -2.8447354539
 H        -2.9768758443        9.5853125716       -5.0424377446
 H        -4.5702665713        9.4880794339       -5.8647670516
 H        -4.5463810366        8.9760117136       -4.1582804980
 H        -9.7003036785        8.8558273060        0.6244782617
 H        -9.6712245750        9.4105246747       -0.9906426444
 H        -8.5180431720        9.9289554463       -0.0099065298
 H        -6.8071444413        6.8937393600        0.8750747091
 H        -6.2438918770        8.5639433467        0.3435085613
 H        -6.1794014728        7.1686720966       -0.8731336966
 H        -7.3891290681        3.0708975251       -2.7541967905
 H        -6.7058810532        1.3730154122       -2.7516614508
 H        -6.7121568949        2.3380240814       -1.2745308759
 H       -10.5027478298        0.5313434014       -2.7938670273
 H        -8.9212088529        0.2432395724       -3.7888954622
 H        -9.7583158062        1.8133720980       -3.6490576241
 H        -7.4353600728       -1.2891958915        4.3860921947
 H        -8.2178514777       -2.8086446809        4.8869794184
 H        -9.0950193750       -1.2814260650        4.8216248154
 H        -7.8814680513       -3.2133847661        0.9850567062
 H        -7.2860689500       -3.6427294527        2.6145892731
 H        -6.6685836824       -2.1727768390        1.7228285798
 H       -15.8089049588       -3.4163419932        2.3355194092
 H       -16.4474122797       -2.1986397220        1.2489032688
 H       -15.7950314230       -1.7010273362        2.8545638608
 H       -13.5228182874       -3.1727617565       -0.5987279122
 H       -15.1291726126       -3.5296668978       -0.1644459001
 H       -13.9886654492       -4.2516729819        0.9337243346
 H       -14.7848801326        4.5891117644       -0.6162000549
 H       -15.1622599343        5.9370653932        0.4803325042
 H       -16.3928019608        4.6250883423        0.2419886634
 H       -13.9844592313        5.8173037078        2.7819988257
 H       -12.9719671116        5.4213508659        1.4250911182
 H       -12.9415443289        4.3824432160        2.8698928655
 Na      -11.5694268680        0.5960888990        0.5723253826
