117

 C       -16.5796157835        4.9326474443        2.4698929496
 C       -15.5799733402        3.8578150115        2.2036618105
 O       -15.6406849193        2.7385294960        2.6458422675
 C       -14.3613235203        4.0851321580        1.1064790088
 C       -14.1454783211        2.6417440075        0.4332002251
 O       -13.0296520784        2.2257511384        0.3076799939
 C       -15.3319118352        1.7850407590       -0.1261251000
 C       -15.5072135698        0.5454773172        0.7779441052
 C       -14.4709607490       -0.4981661762        0.6605849195
 O       -13.6055044289       -0.3697052932       -0.1581649738
 C       -14.5177268815       -1.8415905852        1.6056124632
 C       -13.2193835136       -1.8032371211        2.4255822917
 O       -12.8778346618       -0.7003717128        3.0078456464
 C       -12.4429199541       -3.0783832524        2.7231874334
 C       -11.2245645056       -2.6383247018        3.5998733309
 C        -9.9797186282       -2.9456727720        2.8521707908
 O        -9.9671052801       -3.6371756068        1.8438615085
 C        -8.7078127785       -2.0984029668        3.2820488556
 C        -8.8985511651       -0.7843553684        2.5876370246
 O       -10.0258294974       -0.3155416528        2.4626578896
 C        -7.7420877566        0.1898089272        2.0441923827
 C        -7.6427797437        0.4065535684        0.4702431429
 C        -8.9044049630        0.4354824985       -0.4352687649
 O        -9.7475843380       -0.3585266038       -0.4113845426
 C        -8.8884770988        1.6452268333       -1.4532290935
 C        -9.4850232172        2.8977353711       -0.5930425777
 O        -9.8933201312        2.7026786254        0.5674806916
 C        -9.5181412041        4.2498739544       -1.3611627043
 C        -8.4801449578        5.2731114068       -0.7734521354
 C        -9.0509253134        6.7267645354       -0.8625288856
 O       -10.2432834928        6.8476996918       -0.9795726064
 C        -8.0969413213        7.9284505299       -0.6639993158
 C        -7.5837586958        8.1352662167       -2.2518296351
 O        -7.3899093859        7.1432758453       -2.9128854817
 C        -6.8442148808        9.4509949416       -2.6287677148
 C        -5.8782896611        9.2831405693       -3.7848342191
 C        -5.2439769413       10.7908423678       -4.1007962178
 O        -6.0187849341       11.7195458495       -3.8476541115
 C        -3.7723728422       10.9874586334       -4.5762814269
 C        -3.9015868694       11.8562400390       -5.9018499560
 O        -4.1301576488       11.3911512590       -7.0085990251
 C        -3.8119360479       13.3446337287       -5.8434189623
 C        -2.8994204929       11.5706698171       -3.5012358170
 C        -3.2813397030        9.5812903620       -5.0070655358
 C        -8.8207019811        9.2304300762       -0.3099283398
 C        -6.7506129590        7.9430238682        0.2572025700
 C        -7.4347240598        2.1530254382       -1.8874596448
 C        -9.5567986379        1.1557922656       -2.7501136662
 C        -8.6387324270       -1.9842700746        4.8590823883
 C        -7.4222885231       -2.8198225902        2.7118677129
 C       -15.7474479250       -1.9624448985        2.5495166627
 C       -14.3930791778       -3.0758837811        0.5805019670
 C       -14.8085128040        5.0391675122        0.0421400809
 C       -13.1117795583        4.6680858511        1.7822590529
 H       -17.2146338370        4.9411836542        1.5773720750
 H       -16.2057086720        5.9080181253        2.6786168946
 H       -17.2029693696        4.8290820947        3.3120240260
 H       -15.2506918288        1.3626013485       -1.1247219445
 H       -16.1838689552        2.3983244412       -0.1059918946
 H       -16.3517050265       -0.0886636241        0.4685234936
 H       -15.5849013843        0.8351730505        1.8205275184
 H       -12.0787426252       -3.5572505747        1.8620537741
 H       -13.0274262265       -3.8447327883        3.2164711213
 H       -11.0131565942       -3.1264842728        4.4926690025
 H       -11.1785021069       -1.5609861157        3.7119576839
 H        -6.7896752742       -0.1255588378        2.3292073752
 H        -7.9627183678        1.1240565264        2.6525991309
 H        -6.9241568110       -0.2913543432        0.0399228159
 H        -6.9717359994        1.3195150340        0.2503188748
 H       -10.4420826841        4.7451362179       -1.1702097884
 H        -9.4557073226        4.2305469311       -2.4772402672
 H        -7.4226793407        5.2656411425       -1.0025534580
 H        -8.7664009270        5.2004387718        0.2348027964
 H        -6.1423472034        9.4240251844       -1.7357965681
 H        -7.5343167999       10.2974345311       -2.7274968538
 H        -6.3896612097        8.8616896952       -4.7071310846
 H        -5.0814145405        8.5662576981       -3.4552335723
 H        -3.7657242780       13.6595517710       -6.9391012297
 H        -3.0247329303       13.9582691628       -5.3988179494
 H        -4.7128475736       13.7648497517       -5.3962969155
 H        -1.8507966727       11.8126749910       -3.7903967964
 H        -2.9912179193       11.0967545551       -2.4618264335
 H        -3.1634585876       12.5319823627       -3.2490129837
 H        -2.2564264457        9.4794519439       -5.0634754337
 H        -3.7642869237        9.4308092848       -5.9570253758
 H        -3.5669436187        8.8354840758       -4.3172484033
 H        -8.7914987977        9.4918070267        0.6748892781
 H        -9.9313853291        9.2534897429       -0.5112023279
 H        -8.3360846670       10.1405301936       -0.7719832140
 H        -6.7588101059        7.4456982670        1.2989365186
 H        -6.5016792054        9.0673955559        0.3485720309
 H        -5.9559579163        7.4137018590       -0.2751980538
 H        -7.7628812358        3.0279556060       -2.5446744927
 H        -6.8191058033        1.5407648999       -2.4778084661
 H        -6.8779126455        2.5732319030       -1.0284553940
 H       -10.4701382219        0.5993388252       -2.5172032092
 H        -8.9697799354        0.4387071744       -3.1739121936
 H        -9.8574669277        1.9086448994       -3.3382858701
 H        -7.8532949664       -1.4768892759        5.4237283784
 H        -8.6007399974       -2.9612767399        5.3059162821
 H        -9.5763778852       -1.5551119946        5.1773079173
 H        -7.6839621793       -3.1338399498        1.6541199503
 H        -7.2892516672       -3.7237392937        3.3261653931
 H        -6.6269825998       -2.2108751097        2.5824071056
 H       -15.7121065660       -2.8803494176        3.1572772341
 H       -16.6690392680       -1.7528065250        2.0189358958
 H       -15.6865046273       -1.0787080953        3.1208832706
 H       -13.5638399851       -2.8228951339       -0.1952410845
 H       -15.3550049391       -3.1391764939        0.1053132863
 H       -14.0737092435       -4.0040625881        1.0731623373
 H       -14.1915094890        5.0370262681       -0.9272205263
 H       -14.8850830996        6.0425577815        0.4037504582
 H       -15.7473545864        4.7638422091       -0.4743422252
 H       -13.4573760858        5.4406278700        2.4946914690
 H       -12.2767597212        5.0190835890        1.1420558487
 H       -12.5038623169        3.9164242101        2.3630469122
 Na      -11.5535198781        0.4149040067        0.7001828132
