117

 C       -16.2054553788        5.3746089290        2.4199530775
 C       -15.6305617118        4.0759426459        2.0060126149
 O       -15.9246525501        3.0955304867        2.6704547344
 C       -14.3666975559        4.1743663257        0.8787956295
 C       -14.1835018660        2.6225507844        0.2371744188
 O       -13.0439424884        2.3100883607       -0.0132482109
 C       -15.4082021243        1.8021693515       -0.2979936764
 C       -15.6862907348        0.5074155878        0.5027396546
 C       -14.4955551845       -0.4918434764        0.4985924100
 O       -13.6285744551       -0.4950787744       -0.3245462200
 C       -14.4503028848       -1.6947437345        1.5982617372
 C       -13.2249572056       -1.6267945545        2.4355283475
 O       -12.6270356505       -0.5711632026        2.6523548756
 C       -12.6426549894       -2.9350911767        3.0902558065
 C       -11.2186951480       -2.9999968263        3.8053567908
 C        -9.9593636196       -2.9368077385        2.8508769943
 O        -9.8068034103       -3.5139660433        1.7922653460
 C        -8.6785514032       -2.0641342691        3.4379568762
 C        -8.9593308256       -0.7425459965        2.5903530323
 O       -10.0920765402       -0.3740716665        2.4254451153
 C        -7.7654356206        0.2232481444        2.0759174102
 C        -7.3524052270       -0.0026016503        0.4917133525
 C        -8.6668376773        0.5059944572       -0.2469107931
 O        -9.6699494608       -0.1767645879       -0.0044761135
 C        -8.6774377627        1.7290342114       -1.1708196684
 C        -9.5997466414        2.9224421054       -0.3210635115
 O       -10.4260737893        2.5816376854        0.4735822628
 C        -9.5874253639        4.2930045045       -0.8950219455
 C        -8.8689668551        5.3491737283       -0.1100296807
 C        -9.2110098770        6.7723651804       -0.8130534335
 O       -10.3120608942        6.9951718971       -1.3100440631
 C        -8.0340884219        7.8444755010       -0.8254436937
 C        -7.2781745365        7.9097612056       -2.2395809349
 O        -7.4550430310        7.0733006488       -3.0561316168
 C        -6.5771187284        9.2637255872       -2.5167893798
 C        -5.6211722626        8.9520983082       -3.6510990329
 C        -5.1089549885       10.3134057587       -4.2241845126
 O        -6.0060978858       11.1376561842       -4.2791681564
 C        -3.5660659600       10.6822122498       -4.6718716056
 C        -3.9692066575       11.5954853090       -6.0704146390
 O        -4.0486834711       11.0963514474       -7.1619199940
 C        -4.2390876681       13.1185595153       -5.8386832454
 C        -2.9765344772       11.6725776088       -3.6262072367
 C        -2.5812192449        9.6299476166       -5.2005952268
 C        -8.7032497172        9.1642373144       -0.4863972575
 C        -7.0782672072        7.6958222335        0.4878643478
 C        -7.4022839903        2.1615416192       -1.9249513991
 C        -9.7563568781        1.4333267383       -2.3653007608
 C        -8.5770969775       -1.5435352111        4.8494906294
 C        -7.3828876802       -2.8119965767        2.9204528304
 C       -15.5945520096       -1.5685564010        2.6005473007
 C       -14.5914593626       -3.0074269820        0.7645441523
 C       -14.7123148063        5.0388034268       -0.3064236501
 C       -13.0931446756        4.4866081011        1.6979110254
 H       -16.4251370844        6.1513493725        1.6604015823
 H       -15.4549396400        5.9095312980        3.0601214237
 H       -17.0259925811        5.4079735956        3.1495076518
 H       -14.9702645042        1.3498498088       -1.2078319917
 H       -16.4553756499        2.2541292415       -0.5229190740
 H       -16.4945036826        0.0130530350       -0.1134723081
 H       -15.9939325377        0.8348019489        1.5137960209
 H       -12.6221377046       -3.7361254147        2.3102405065
 H       -13.3294954980       -3.3021404887        3.9242058958
 H       -11.1571345064       -4.1012715682        4.1825069523
 H       -10.9615634568       -2.2032668786        4.5487841212
 H        -6.8095028420        0.1298936385        2.6773648368
 H        -8.1226217517        1.2821788699        2.1500433684
 H        -7.1201131263       -0.9223788949        0.0306183409
 H        -6.3747257094        0.4930706532        0.2864388379
 H       -10.6886365944        4.5132276155       -1.0210820757
 H        -9.2448317083        4.4446201581       -1.9079513676
 H        -7.8018856978        5.0681063024       -0.2532951474
 H        -9.2737148515        5.2481569880        0.8663413921
 H        -6.0292314921        9.6605799460       -1.6652664668
 H        -7.3657307643        9.9381533500       -2.7910225074
 H        -5.9351835498        8.2279043485       -4.3135933108
 H        -4.7070646255        8.5823435534       -3.1597513769
 H        -4.9267982624       13.5954197075       -6.5254487435
 H        -3.3948185534       13.7365694455       -5.9710705406
 H        -4.5191616199       13.3553543618       -4.8378101180
 H        -2.1105340613       12.2103025370       -4.1706306386
 H        -2.4741210032       11.2400398264       -2.7510036852
 H        -3.5055254838       12.3198063661       -3.1073850717
 H        -2.6440746211        9.6178573568       -6.3425590223
 H        -2.9063385171        8.5068094165       -5.0322453735
 H        -1.5193124391        9.7724992932       -4.8809818376
 H        -9.3380308926        9.1941894777        0.2792390237
 H        -9.3436802435        9.5377859527       -1.2951135476
 H        -7.9506957117        9.8840489586       -0.2476073864
 H        -7.6480939990        7.8453858698        1.3864551355
 H        -6.2292586849        8.3759366443        0.5303767834
 H        -6.7134084957        6.7113573653        0.6653253392
 H        -7.7013651533        2.6458542594       -2.8673076156
 H        -6.9623598109        1.2106395136       -2.1831048964
 H        -6.7413733647        2.8365126701       -1.3321663032
 H       -10.8624813301        1.2193823804       -1.8923413303
 H        -9.4921091232        0.6434997925       -3.1736351903
 H        -9.9028239492        2.4364392842       -2.9033928350
 H        -7.5752653014       -1.0630926105        4.9831946045
 H        -8.7347822114       -2.2324822981        5.6778816499
 H        -9.2141189029       -0.6533181467        5.1237057817
 H        -7.4995123008       -2.8282720019        1.7625180413
 H        -7.3773062210       -3.7928848797        3.4214742625
 H        -6.4760716444       -2.3403916879        3.2616107223
 H       -15.5289125969       -2.4109648269        3.2962918021
 H       -16.5047270123       -1.7804684818        1.8976112346
 H       -15.6775541602       -0.6370494320        3.0828059926
 H       -13.6026583482       -3.1977607749        0.2568548609
 H       -15.4750097532       -2.8871069110        0.1826576470
 H       -14.7389827710       -3.8430451996        1.3530257490
 H       -14.0508908766        4.8399491159       -1.1982723180
 H       -14.6890642560        6.0431801927       -0.1014139461
 H       -15.7628032378        4.9390396879       -0.6429914691
 H       -13.0533962229        5.4265875665        2.1180697575
 H       -12.1868225777        4.4628001932        1.0664094974
 H       -12.9032248334        3.7488940778        2.4639848208
 Na      -11.7782305207        0.7564541028        1.0464697839
