117

 C       -15.9882465405        5.6239273060        2.3752968738
 C       -15.6262249141        4.1939139058        1.8179766373
 O       -16.1117311222        3.2300057701        2.4025125477
 C       -14.4758576503        4.0708947062        0.7490995360
 C       -14.2789763391        2.6565307377        0.0658317891
 O       -13.1549552652        2.2075936744       -0.0345626536
 C       -15.4598208022        1.7805360832       -0.4813930584
 C       -15.5882820052        0.5482130209        0.5958502688
 C       -14.4239129821       -0.3996167311        0.4836173139
 O       -13.5663508947       -0.4739129093       -0.3863732889
 C       -14.4970184334       -1.6096171869        1.6145880903
 C       -13.1104495398       -1.7230229719        2.5169071358
 O       -12.5136098679       -0.7025333264        2.6506793747
 C       -12.5496751964       -2.9926718155        3.0758559722
 C       -11.2711014826       -2.6768035366        3.8695385084
 C       -10.0329733283       -2.8196299791        2.8863864949
 O       -10.0598548764       -3.5949922455        1.9771313787
 C        -8.7405878962       -1.9895975289        3.3261037719
 C        -8.8975697994       -0.5013329363        2.6620679181
 O        -9.9801637328        0.0810639632        2.6562629705
 C        -7.5974880650        0.1641970289        2.0121332652
 C        -7.5293627749        0.0115769015        0.5070035113
 C        -8.8219982932        0.4898078846       -0.1389774532
 O        -9.7442441293       -0.3554090015       -0.1770800261
 C        -8.9228447223        1.6834382072       -1.0701116023
 C        -9.6132175078        2.9411301243       -0.3151322710
 O       -10.2344902540        2.8351760578        0.7656316974
 C        -9.6155097281        4.3169929056       -1.0520196210
 C        -9.1498418124        5.4647561103       -0.0229896346
 C        -9.2949866170        6.8218449260       -0.7219940084
 O       -10.2861767734        7.0195847444       -1.4134691510
 C        -8.0330982107        7.8796278716       -0.6575259012
 C        -7.2409117156        7.7307476658       -2.1513070966
 O        -7.4757876403        6.7049142471       -2.7950149278
 C        -6.1687694258        8.8849683799       -2.4214708846
 C        -5.0349830136        8.8157632112       -3.4868469484
 C        -5.0729858861       10.1035533275       -4.3764583155
 O        -5.9664950299       10.8339088189       -4.6144149126
 C        -3.5765403918       10.6614523073       -4.7620956548
 C        -4.0253306469       11.5601231508       -6.2046342046
 O        -3.8191820981       11.0204715363       -7.2761665484
 C        -4.5299457053       12.9480348996       -6.0426055312
 C        -2.8406244943       11.6463303812       -3.7372629864
 C        -2.7416780439        9.4097674450       -5.0889906697
 C        -8.7454968350        9.3581258912       -0.7599942657
 C        -7.0956408870        7.5220996914        0.4941694813
 C        -7.4223389045        2.2804334370       -1.4483467020
 C        -9.9870236997        1.3950194072       -2.2291242545
 C        -8.7617953923       -1.6229470105        4.8399105093
 C        -7.4563363784       -2.7246053168        3.0140101324
 C       -15.6946990610       -1.3842035076        2.6524253995
 C       -14.6974268563       -2.9595879196        0.8918162624
 C       -14.7262990096        5.1481835584       -0.3733590327
 C       -13.1053855824        4.4128825583        1.4496945627
 H       -16.1153168236        6.4635624774        1.7428710754
 H       -15.2232084636        6.0682459887        3.0108552862
 H       -16.8449915939        5.6378275427        3.0512312877
 H       -15.3697944158        1.4835664280       -1.4865296301
 H       -16.4511445227        2.1571785563       -0.2755412701
 H       -16.5916592608        0.1829320224        0.5697900833
 H       -15.3988427951        1.1842402301        1.4492746103
 H       -12.3143766558       -3.6811578457        2.2512623071
 H       -13.2308035704       -3.4004659127        3.7645596407
 H       -11.1084020901       -3.4497912615        4.5388608279
 H       -11.2424042619       -1.7194339466        4.2812240384
 H        -6.7034879019       -0.3855263485        2.3857398775
 H        -7.5101117155        1.2025165968        2.3128310784
 H        -7.3145040264       -1.0838208601        0.1817145302
 H        -6.6354087956        0.5024666913        0.1401241902
 H       -10.5908244055        4.6479988000       -1.3145607768
 H        -9.1050116140        4.3209692371       -2.0175392900
 H        -8.2164121959        5.2188653519        0.4394168197
 H        -9.9308339734        5.1733240335        0.7288213077
 H        -5.7927093491        8.9525943775       -1.3565915820
 H        -6.5799091259        9.9374539477       -2.5701692163
 H        -4.9640694902        7.7825160241       -3.9923766107
 H        -4.0162849190        8.7906087740       -3.0694854344
 H        -5.1792185825       13.2104562144       -6.8638119494
 H        -3.7865666027       13.7951437644       -6.0811013128
 H        -5.0316349257       13.1741393698       -5.0699865032
 H        -1.8603029069       11.8732221602       -4.1172527658
 H        -2.5489175914       11.3735332161       -2.7366091078
 H        -3.3940502233       12.6359544505       -3.4533584886
 H        -3.2917560679        8.5423664250       -5.4066229745
 H        -2.0966175519        9.0571032294       -4.3693914188
 H        -2.1502575227        9.7265113645       -5.9036829681
 H        -9.6422085667        9.2630808526        0.0147575543
 H        -9.2393903980        9.5065153605       -1.6997231477
 H        -8.2085121072       10.2450015802       -0.4628869601
 H        -7.6402198427        7.2593112317        1.4516226164
 H        -6.3591580376        8.3212235042        0.7556601166
 H        -6.4103855874        6.5934312017        0.2583453421
 H        -7.5004382189        3.3139983877       -1.5805018302
 H        -6.9686275741        1.7497098411       -2.3505817927
 H        -6.8141305040        2.1154890839       -0.5641758967
 H       -10.8793211116        1.0226839558       -1.8692669899
 H        -9.4693981633        0.6580880199       -2.7295664131
 H       -10.1105855475        2.1326765589       -2.9662926983
 H        -8.1420472294       -0.7520843538        5.0299139254
 H        -8.4019076948       -2.4685085328        5.4639507661
 H        -9.6348949705       -1.3172065235        5.3708823938
 H        -7.5131749211       -3.0220194871        2.0315075397
 H        -7.2406336842       -3.4611713691        3.7472092937
 H        -6.6368127935       -1.9716267004        3.2313303112
 H       -15.5485024642       -2.1991852035        3.3436645164
 H       -16.6298092825       -1.5954506326        2.2285049412
 H       -15.5657983972       -0.4350591549        3.2634029978
 H       -13.7883201874       -3.1705501133        0.3876723485
 H       -15.6476010393       -2.9955949049        0.2902366273
 H       -14.8205951489       -3.8076711567        1.6525153730
 H       -13.8969703996        5.2685244257       -1.0489471276
 H       -15.1105659839        6.1915516553       -0.0327134143
 H       -15.6609020229        4.9004223832       -0.9107324253
 H       -12.7728806592        5.4749311104        1.3104175654
 H       -12.2185127878        3.8912402600        1.0156366117
 H       -13.1718979037        4.2619827254        2.5603841385
 Na      -11.4729228411        0.8625149697        1.0241142608
