117

 C       -15.8413797769        5.5560500210        2.3624753476
 C       -15.6152043833        4.2021561699        1.7122463345
 O       -16.1842318154        3.2178196925        2.1675749498
 C       -14.4353076723        4.1648866902        0.5998983681
 C       -14.2074965814        2.7129020651        0.0766867050
 O       -13.1409766695        2.1616742202       -0.0830153608
 C       -15.4453418674        1.8478056740       -0.2316307160
 C       -15.5582107166        0.5751288830        0.6721015287
 C       -14.4188099034       -0.4501360967        0.5800188932
 O       -13.5340873697       -0.4434537258       -0.2366196690
 C       -14.4584072444       -1.6372140867        1.6735563416
 C       -13.1542770252       -1.5644867136        2.3867237422
 O       -12.5585132223       -0.5567951856        2.5525160272
 C       -12.5628636130       -2.9526842554        2.9939071634
 C       -11.3700994610       -2.6348692324        3.8792371182
 C       -10.1090177296       -2.7690758441        2.9916729488
 O       -10.1453270936       -3.5702054984        2.0975669291
 C        -8.7720874925       -1.8667587886        3.3864262242
 C        -8.7649140357       -0.4025060454        2.7085410887
 O        -9.7569673196        0.3207232284        2.7545743904
 C        -7.5484376838        0.1485086174        2.1053955294
 C        -7.5991623637       -0.0221766090        0.5206421303
 C        -8.9354743803        0.3937557804       -0.2500458964
 O        -9.9347759792       -0.4091012939       -0.1569492404
 C        -9.0574943113        1.7442228779       -1.0232490835
 C        -9.6427416703        3.0732891885       -0.2575497952
 O        -9.9833961900        2.9508124874        0.8577591708
 C        -9.7106463375        4.4063186049       -0.9470147368
 C        -9.1918600408        5.5579303613       -0.0492349390
 C        -9.2530292133        6.8328979280       -0.8816793327
 O       -10.2987089785        7.2260265447       -1.4660871935
 C        -8.0977210102        7.8230010232       -0.8023609462
 C        -7.1402319525        7.5247157753       -2.0346399861
 O        -7.3234214617        6.5938763354       -2.6667019259
 C        -6.0475769577        8.7076881987       -2.1952342316
 C        -4.9860610883        8.9075330916       -3.3571197749
 C        -5.0521699766       10.1920709395       -4.1635820307
 O        -6.0974854920       10.5528432572       -4.6319998742
 C        -3.5794400181       10.6653632640       -4.9825488218
 C        -3.8631119964       11.4401712862       -6.1994794024
 O        -3.6677095585       10.9331106171       -7.2832538902
 C        -4.6186241658       12.7117350922       -6.0851973054
 C        -3.0179869766       11.4866118333       -3.9028846939
 C        -2.6998683607        9.3816200117       -5.2432317527
 C        -8.7496499532        9.2071153661       -0.7177794172
 C        -7.1309913962        7.6947205306        0.3316533095
 C        -7.6028476407        2.2429785123       -1.3489609138
 C        -9.7998759753        1.4268712016       -2.3244222076
 C        -8.7485032467       -1.7193387456        4.9324436333
 C        -7.5500857694       -2.6941340641        3.0177004624
 C       -15.5518484596       -1.3889664607        2.7063428290
 C       -14.8293939456       -2.9922349261        0.9052893298
 C       -14.7426135839        5.1512596580       -0.6137431115
 C       -13.2198083757        4.5238708889        1.4340648343
 H       -16.0758011869        6.3911206656        1.7487101627
 H       -14.9590340875        6.0568653628        2.8160650131
 H       -16.5848558083        5.5130268312        3.1464939044
 H       -15.4217568303        1.4190452044       -1.1791220816
 H       -16.5329935978        2.3066995427       -0.1057188881
 H       -16.3446276866        0.0997263029        0.1304223914
 H       -15.8658047788        0.9227771623        1.6261794546
 H       -12.2740525176       -3.5287522466        2.0473780173
 H       -13.3382338614       -3.4701778189        3.6221263419
 H       -11.2817089681       -3.2217218245        4.8159259978
 H       -11.3611901006       -1.5946462199        4.0202391433
 H        -6.5799560074       -0.1894698906        2.6303920914
 H        -7.7230404897        1.1146533914        2.3739305623
 H        -7.5924535991       -1.1398826762        0.3849170926
 H        -6.7196828571        0.3166380342       -0.1185592769
 H       -10.6333766757        4.7466822242       -1.4597032671
 H        -9.0074636285        4.3774946609       -1.7245801878
 H        -8.1526163049        5.2254723493        0.2617754756
 H        -9.7676970175        5.5093687435        0.9399645124
 H        -5.6248035624        8.9576641151       -1.1797080603
 H        -6.6460716668        9.7014019906       -2.3186739811
 H        -5.0567916725        8.1338354486       -4.1000074874
 H        -3.9304987240        8.6493564339       -3.0057330472
 H        -5.1369488410       13.0082153205       -6.9940588900
 H        -3.9188030881       13.5523664817       -5.9275814753
 H        -5.2531367076       12.8820818277       -5.1733143605
 H        -1.9198203023       11.8395997459       -3.8411587898
 H        -2.9944416524       10.9549451966       -2.9663868623
 H        -3.6021401302       12.2890427534       -3.6827493278
 H        -3.1045770726        8.4209631870       -4.9968377112
 H        -1.7222066970        9.4431820000       -4.8465054661
 H        -2.5375513860        9.3862118647       -6.2361687312
 H        -9.2818887480        9.2645476958        0.2607921273
 H        -9.5162466589        9.5488801299       -1.5524390246
 H        -7.8997560450       10.0051275460       -0.6263493659
 H        -7.6676178043        7.3708309348        1.2161566591
 H        -6.6487509174        8.6094596050        0.6222616446
 H        -6.3013854219        6.9527318262        0.1725792948
 H        -7.6649232214        3.1987413793       -1.7431625358
 H        -7.2238349855        1.5267455840       -2.0968783551
 H        -6.9953668368        2.2075695678       -0.4592625140
 H       -10.7751990792        0.9817777516       -1.9980719273
 H        -9.1911145254        0.7207696462       -2.8674723588
 H        -9.8841543209        2.1786037696       -3.0326197848
 H        -8.0090453950       -1.0626330657        5.2784777825
 H        -8.6422693718       -2.6577313215        5.3798643664
 H        -9.6296701234       -1.3226897003        5.4399074494
 H        -7.7765062187       -2.8704279001        1.9756097702
 H        -7.4354426352       -3.5247198321        3.6010031135
 H        -6.6425821391       -2.1046301433        3.2098771276
 H       -15.6821088501       -2.3180077894        3.1991608722
 H       -16.4974695752       -1.3588031770        2.0527663193
 H       -15.3386850733       -0.6436415236        3.4274537310
 H       -14.0266025063       -3.1001060748        0.1175134186
 H       -15.8208855094       -2.7754151724        0.4156687599
 H       -14.9524310067       -3.8755321514        1.4307181057
 H       -14.0466415460        5.0291439280       -1.4352128405
 H       -14.8175187090        6.1789440870       -0.4214614109
 H       -15.7998223289        4.9774987720       -0.9011485289
 H       -12.8912767789        5.4766136162        1.5649826933
 H       -12.2323787867        4.0198235090        1.0824418291
 H       -13.5255120926        4.1393953898        2.4410496530
 Na      -11.4505379059        0.7633383192        0.9809330036
