117

 C       -15.8878403290        5.5290152713        2.2966872115
 C       -15.6083450618        4.2633742587        1.6177851082
 O       -16.3813426583        3.3347078205        1.7782472382
 C       -14.3399921415        4.1940647024        0.6070226179
 C       -14.1172345880        2.7584267994        0.1115256486
 O       -12.9889207997        2.3230143882       -0.0001213771
 C       -15.2851546809        1.8162916278       -0.3805933457
 C       -15.7432626049        0.6206396497        0.5713875223
 C       -14.5734323342       -0.4090621873        0.7009300110
 O       -13.6409193478       -0.2158647064       -0.0691541267
 C       -14.5864061073       -1.5848560284        1.7004142213
 C       -13.2455414013       -1.5656209745        2.4392900425
 O       -12.6517609654       -0.4946122093        2.3706013737
 C       -12.6285972346       -2.8197108824        3.1354102386
 C       -11.3867504524       -2.4115858427        3.8848479969
 C       -10.0801919636       -2.5260834096        3.0954993518
 O       -10.0521116961       -3.3440804886        2.2018951416
 C        -8.7430501285       -1.7255327977        3.5275585078
 C        -8.7884923917       -0.3642306646        2.9264105090
 O        -9.7161941487        0.3746767649        3.1396673766
 C        -7.6841779067        0.0697965532        1.9208405661
 C        -7.8082654900       -0.2996570241        0.4562254322
 C        -9.0123758297        0.3792302046       -0.2995807911
 O       -10.0416663036       -0.1342591080       -0.1400833476
 C        -8.8856630024        1.8057189990       -1.0154790555
 C        -9.6086281336        2.9501855041       -0.1672728031
 O        -9.9099136621        2.7509169481        1.0562647289
 C        -9.9209984027        4.3046682076       -0.9105463959
 C        -9.2191302643        5.4160591915       -0.1491115841
 C        -9.3506995464        6.8328509433       -0.9377293534
 O       -10.2567406788        7.2733509653       -1.5516349143
 C        -8.1231085730        7.9341333913       -0.8139478170
 C        -6.8835108885        7.7788336926       -1.8725304074
 O        -6.7131745599        6.6998174518       -2.5456408768
 C        -5.8872056832        8.8790185298       -2.2422899322
 C        -4.8471396165        8.4966346577       -3.3375699999
 C        -5.0258894144        9.7280143929       -4.3529220438
 O        -6.1287429159       10.2037804257       -4.4333911167
 C        -3.7945845315       10.2926628480       -5.0324279528
 C        -4.0158768538       11.1159635755       -6.2393060872
 O        -3.4276698523       10.9078752642       -7.3015914741
 C        -4.8011740496       12.4635076073       -6.2741375935
 C        -3.2454358022       11.1604307147       -3.9628076332
 C        -2.6543786451        9.2189615110       -5.3193779641
 C        -8.6317053855        9.4509062363       -0.8767531443
 C        -7.3735599974        7.6498590459        0.5275046403
 C        -7.3759453426        2.2609167629       -1.3875717874
 C        -9.7365343521        1.5523791023       -2.2490866704
 C        -8.6483177406       -1.6674824171        5.0897194890
 C        -7.6323226895       -2.6193655695        2.9422529922
 C       -15.6011261464       -1.5214436393        2.8602781428
 C       -14.8451141065       -2.8768272766        0.8538832733
 C       -14.6697647602        4.8734670072       -0.7346649782
 C       -12.9830158761        4.8049196758        1.1471176352
 H       -16.2728747457        6.3521217767        1.6565726944
 H       -15.0980712501        6.1714842985        2.6586651417
 H       -16.7011431086        5.3389971486        3.0333136924
 H       -14.8164814765        1.1647813362       -1.2168741767
 H       -16.0135903648        2.4624702437       -0.7870261472
 H       -16.7602765734        0.1620002964        0.4206113154
 H       -15.7426024164        1.1944927589        1.5472632857
 H       -12.3825905911       -3.3900872811        2.2311440172
 H       -13.4226820970       -3.2707673732        3.7948308038
 H       -11.1117675244       -3.2512687668        4.5747724523
 H       -11.5095853957       -1.4131812562        4.4635341030
 H        -6.8556094893       -0.4825904851        2.3127167302
 H        -7.4046103311        1.1890228392        2.0779685460
 H        -8.0200342239       -1.3718791699        0.5268842149
 H        -6.8821798674       -0.1458480087       -0.0283772359
 H       -10.9964756541        4.4945408752       -0.8653623990
 H        -9.6510498733        4.4335839888       -2.0138857974
 H        -8.1880314233        5.0781503209       -0.1892243607
 H        -9.3317583513        5.4640031906        0.9183082827
 H        -5.4242731709        9.4375359890       -1.4321430758
 H        -6.4768243782        9.6582320188       -2.6071424645
 H        -5.0753942410        7.5507510840       -3.9096699605
 H        -3.9621609528        8.2538843993       -2.8538047331
 H        -4.9479481701       12.8145218639       -7.2746835048
 H        -4.4501495980       13.2997668555       -5.6929314741
 H        -5.7890721436       12.3817933346       -5.8869721800
 H        -2.4666616898       11.8021542281       -4.1532958823
 H        -2.8219964733       10.6828661293       -3.0739853316
 H        -4.1262868561       11.9168084357       -3.7236820878
 H        -2.3234396991        8.9453883503       -4.2680750266
 H        -1.8126349847        9.5041651875       -6.0183890871
 H        -2.9668044962        8.1768846103       -5.7641902105
 H        -9.0614497713        9.7823918503        0.1030973868
 H        -9.3064154614        9.5236668460       -1.6270612764
 H        -7.8977499975       10.0900596572       -1.1639448235
 H        -7.9527696824        7.6838650600        1.3957521567
 H        -6.6685404504        8.4264558958        0.6464342027
 H        -6.7267868576        6.7893041987        0.5789771320
 H        -7.4845784563        2.7237334481       -2.3655846937
 H        -6.6148216317        1.4692905731       -1.2240537146
 H        -7.1478495971        3.0438195047       -0.6613403056
 H       -10.7777928109        1.3267550513       -1.8882547978
 H        -9.2371540921        0.9532917275       -3.0892386378
 H        -9.7470962225        2.5827691942       -2.8400826631
 H        -7.6563503619       -1.6979065131        5.5795498955
 H        -9.2883672237       -2.4408376849        5.5701186089
 H        -9.1031163722       -0.8174808645        5.5248334009
 H        -7.7773273619       -2.6072815450        1.8806749915
 H        -8.0538606095       -3.6247015010        3.2704666931
 H        -6.6098332452       -2.5098041301        3.3945979282
 H       -15.5524812251       -2.3306487405        3.6080923279
 H       -16.5485169829       -1.3749272379        2.5257805033
 H       -15.1101711837       -0.6425220673        3.3623611783
 H       -14.3405940521       -2.9427571840       -0.0665399688
 H       -15.8924040063       -2.9623074520        0.6468444777
 H       -14.6479777769       -3.7499279565        1.5727473744
 H       -13.9817940132        4.5264971821       -1.4465548163
 H       -14.5855642747        5.9981219038       -0.8481181357
 H       -15.6660500086        4.6630665760       -0.9786426025
 H       -13.0141727117        5.8791719227        1.4758431489
 H       -12.3147243743        4.8664310526        0.3742974203
 H       -12.5783194581        4.3182383449        1.9744073052
 Na      -11.6070955695        0.8532473936        0.9482308752
