117

 C       -15.8674729421        5.7510787770        2.1718212677
 C       -15.7629826074        4.4277766653        1.4126060414
 O       -16.4818109698        3.4526433081        1.4370390359
 C       -14.5635858656        4.4641937430        0.3110387151
 C       -14.1993701670        2.9719891838       -0.0306083942
 O       -13.0233159267        2.6282151226        0.0525007569
 C       -15.2020284907        1.9124994067       -0.4492769746
 C       -15.4863961064        0.7365627737        0.5991533303
 C       -14.3415069639       -0.3099147984        0.7315123419
 O       -13.6005516670       -0.5030476078       -0.2001825370
 C       -14.5940602816       -1.5171443709        1.7928374682
 C       -13.3197991929       -1.3803650257        2.6347197183
 O       -12.6483378476       -0.3158042801        2.5663577148
 C       -12.7301678879       -2.5873371984        3.5179433370
 C       -11.4062031467       -2.3259328506        4.0856981941
 C       -10.1375800026       -2.4254949393        3.1248331544
 O       -10.1141996465       -2.9805921459        2.0546977430
 C        -8.7115486014       -1.7261610381        3.6390498609
 C        -8.8011681255       -0.3374151001        2.9346574236
 O        -9.8546833448        0.2349583337        3.0968154524
 C        -7.6647444048        0.2182548600        1.9216790220
 C        -7.8285477689       -0.2464237496        0.4394665912
 C        -9.1303938850        0.3707374552       -0.2372063527
 O       -10.2449657221       -0.0550238438       -0.2743489166
 C        -8.8900250840        1.7331179580       -1.0955541354
 C        -9.5662343296        2.9642784580       -0.2643185115
 O       -10.0471255371        2.8448698474        0.8710030269
 C        -9.6063730982        4.3381789858       -0.9633258317
 C        -8.6815304106        5.3123428052       -0.3738281084
 C        -9.0239090611        6.6919452359       -0.8190025233
 O        -9.9003989470        6.7868975416       -1.6440116478
 C        -7.9926437645        7.8770308062       -0.6297466112
 C        -6.7099718260        7.5218264696       -1.5539904038
 O        -6.5924562413        6.2774018064       -1.8777198946
 C        -5.8576439421        8.7290103660       -2.0039965286
 C        -5.0168439675        8.5775302610       -3.2335473953
 C        -5.1048390557        9.5137757150       -4.4497117612
 O        -6.2078662790        9.6419637023       -4.9758327588
 C        -3.7629101160        9.9644058046       -5.0532228033
 C        -4.0341623146       10.8885635893       -6.4070555666
 O        -3.2386576294       10.5805060303       -7.2859310501
 C        -5.2562123092       11.7892695759       -6.4907235773
 C        -3.0283620458       10.9536225641       -4.0324702831
 C        -2.7219080228        8.9166075585       -5.3498330240
 C        -8.7721762659        9.2871857151       -1.0288322159
 C        -7.5259479446        8.0960312169        0.8491277726
 C        -7.3351058605        2.1815170808       -1.2787505314
 C        -9.4580324328        1.6346273878       -2.6263740936
 C        -8.7067828568       -1.5142285882        5.1283144620
 C        -7.5077635102       -2.6246082028        3.2031254798
 C       -15.9729986842       -1.2395932734        2.7894645062
 C       -14.6786076459       -2.8506452377        1.1060467369
 C       -15.0840511278        5.2074411856       -0.9232041527
 C       -13.3123673110        5.1249945930        0.9609330798
 H       -15.5633729000        6.5743844750        1.5063974934
 H       -15.0693012074        6.0160827008        2.7894523112
 H       -16.8354339146        6.0468606049        2.5001773645
 H       -14.7383501921        1.3220760564       -1.4166755770
 H       -16.0355490702        2.4180463889       -0.8266633870
 H       -16.4365704670        0.2232084229        0.4068444978
 H       -15.7066427689        1.1664082980        1.5580444023
 H       -12.6105767116       -3.3436835829        2.7199367758
 H       -13.5742275141       -2.7782387652        4.2674803680
 H       -11.2843583536       -3.2635021460        4.6728426966
 H       -11.1793995713       -1.5289822939        4.8283676580
 H        -6.6920470472        0.1786534730        2.2946202490
 H        -7.8332199349        1.3858701456        1.8423511963
 H        -8.1046757466       -1.3063210426        0.4416298459
 H        -6.7903145039       -0.0411885752        0.0624390130
 H       -10.5422722942        4.8542757779       -0.7692787397
 H        -9.4609018275        4.3298069941       -2.0512357627
 H        -7.6017669722        5.1215597571       -0.8282265839
 H        -8.2249357391        5.1904949432        0.6201417856
 H        -5.1843709206        8.8684910246       -1.0933276085
 H        -6.3547980886        9.7325503432       -1.8061321150
 H        -5.1880625041        7.5190120138       -3.5402680197
 H        -3.9490362120        8.6599030411       -2.9048598757
 H        -4.9160300521       12.7699942470       -6.9957839853
 H        -5.6822480568       12.1387267809       -5.5356278057
 H        -6.0933615927       11.4628073845       -7.1172646269
 H        -2.2211881218       11.3160017671       -4.4695916795
 H        -2.5418267677       10.4428441572       -3.1956614407
 H        -3.4723827983       11.9394559091       -3.7781982941
 H        -1.9238603720        9.3838181433       -5.8259128198
 H        -3.1524941241        8.3042829667       -6.0722527021
 H        -2.2629855575        8.3822683467       -4.5614868656
 H        -9.9319685492        9.0125314914       -0.9811833833
 H        -8.3571053507        9.5762038906       -1.9947974622
 H        -8.4760794334       10.1347965447       -0.3576350681
 H        -8.4509912531        8.1827057053        1.4780552544
 H        -6.9036409559        8.9869097186        1.1379295667
 H        -7.0008104850        7.2233707343        1.2135496449
 H        -7.2587561389        3.2090600213       -1.7283203397
 H        -7.1542922573        1.4350470569       -2.0074556109
 H        -6.7110511279        1.9828738128       -0.4514813174
 H       -10.5097314262        1.7666669573       -2.6191081937
 H        -9.0608213021        0.6812535076       -3.0431439555
 H        -8.8817713898        2.4643573533       -3.1651210186
 H        -7.9922887283       -0.7562204610        5.4398069872
 H        -8.5380822905       -2.2575859944        5.8682216213
 H        -9.6420218504       -1.1041484678        5.3958944943
 H        -7.7609750700       -3.2080587978        2.3578038991
 H        -7.2331587848       -3.3033456657        4.0525922703
 H        -6.7931846997       -1.8886601344        3.0127087577
 H       -15.9045112858       -1.9565472294        3.6447164662
 H       -16.8562131784       -1.3353048355        2.2563183833
 H       -15.8594044888       -0.2122932816        3.1830514754
 H       -13.7740881828       -3.0266574655        0.5564147136
 H       -15.3757551769       -2.9146863244        0.3161936440
 H       -14.8951338892       -3.5679030526        1.9513858857
 H       -14.2204589472        5.4601271681       -1.5716659756
 H       -15.3774236711        6.2561727637       -0.6664918461
 H       -15.8555027434        4.7284954063       -1.4874220422
 H       -13.5100941494        6.1545003821        1.5077176021
 H       -12.5043228246        5.2837385314        0.2914564908
 H       -12.8844490937        4.5259901761        1.7622727927
 Na      -11.5473395375        1.0075405017        1.3484883814
