117

 C       -16.0775567524        5.7280347614        2.1983293353
 C       -15.7970467372        4.5643026721        1.2595094725
 O       -16.5293864197        3.6062199144        1.5010447924
 C       -14.6353150130        4.4892961170        0.2371088294
 C       -14.1704200799        2.9255859925       -0.0571840384
 O       -13.0133142963        2.6798863924        0.1411282298
 C       -15.2203455755        1.9056720406       -0.4336073694
 C       -15.3508158389        0.8601855549        0.5838287326
 C       -14.3889952879       -0.3421450384        0.6056432227
 O       -13.4985846031       -0.4759859798       -0.1569992776
 C       -14.5322965500       -1.5111600475        1.8005323073
 C       -13.2980865312       -1.2782853993        2.6780968816
 O       -12.7891049757       -0.2186363838        2.8391890871
 C       -12.7667170622       -2.5981014159        3.5314429005
 C       -11.3272998980       -2.4369337056        4.1158781208
 C       -10.1184265421       -2.4187165230        3.1904914749
 O       -10.1530636260       -2.8924675879        2.0913176214
 C        -8.7875432874       -1.6468460534        3.6495446175
 C        -8.8900279529       -0.2866417239        2.8116686886
 O        -9.9140133794        0.3788366080        2.8755137173
 C        -7.7979458894        0.2302054392        1.9681371720
 C        -7.9769768661       -0.1848584363        0.4891126857
 C        -9.1489945357        0.4328692395       -0.2631176735
 O       -10.2269628894       -0.1095155443       -0.2445676583
 C        -8.8882950035        1.7052810924       -1.1180997307
 C        -9.5749276792        2.9143372885       -0.4420512236
 O       -10.0369892526        2.8323485919        0.7493780507
 C        -9.6035049922        4.2464399442       -1.0425308715
 C        -8.5848063766        5.1887857920       -0.3166448384
 C        -8.8321791992        6.6446370430       -0.9702991844
 O        -9.8565299462        6.7097939704       -1.5807056989
 C        -8.0116318254        7.9204149007       -0.5308612641
 C        -6.7584611185        7.6511030443       -1.4445062801
 O        -6.3871081596        6.4938943181       -1.7092433850
 C        -5.8285440829        8.7531787937       -1.9741903212
 C        -4.8635150910        8.2675884257       -3.1663719534
 C        -5.1380461887        9.3009477565       -4.3879693710
 O        -6.1703172414        9.4152485872       -5.0029005472
 C        -3.7843222886        9.9331656692       -5.0616229103
 C        -4.1348376003       10.7024729830       -6.4094747991
 O        -3.2936711608       10.6043935393       -7.2623114735
 C        -5.2134215720       11.6627234540       -6.6433619213
 C        -2.9745507995       10.9334067205       -4.1080952975
 C        -2.8820032814        8.8143601412       -5.3218451114
 C        -8.7590641958        9.1217616840       -1.1453535230
 C        -7.4651229472        8.1626128121        0.8737100937
 C        -7.2904035817        2.0944251153       -1.1774164074
 C        -9.4112388039        1.6087766448       -2.5192248050
 C        -8.6996967061       -1.4586118101        5.1881956696
 C        -7.6404864753       -2.6285022318        3.1828431401
 C       -15.7412626273       -1.1390578917        2.6383554213
 C       -14.6342839176       -2.8869798249        1.2428133161
 C       -15.1025974623        5.3229407696       -0.9918751666
 C       -13.4357280428        5.2248034910        0.7361056752
 H       -15.6291189100        6.7047792485        2.1374220850
 H       -15.5529312965        5.5394187488        3.1218212606
 H       -17.1749596865        5.8834091834        2.2432094857
 H       -14.8622000720        1.4687884387       -1.3956493905
 H       -16.2208114739        2.3430586761       -0.7018029246
 H       -16.4287590164        0.6452464033        0.6611155846
 H       -15.1945137363        1.2401652730        1.6167149829
 H       -13.0493388246       -3.4957172547        2.9380621462
 H       -13.4744548581       -2.3978282746        4.3438735560
 H       -11.2475878447       -3.1941450706        4.9639684518
 H       -11.1064961992       -1.4362343833        4.6681853747
 H        -6.8031568757       -0.0600741626        2.3219526148
 H        -7.7654097217        1.3474657231        2.0743591584
 H        -8.4377476991       -1.2151270239        0.6122959292
 H        -7.0237132769       -0.1869664129        0.1713870345
 H       -10.5302339512        4.7951944657       -0.8181135049
 H        -9.4839717589        4.1711902896       -2.1796550264
 H        -7.5492000037        4.8311482389       -0.1277785146
 H        -8.7608285416        5.2578680446        0.7883401351
 H        -5.4765204764        9.2754835850       -1.0517499886
 H        -6.3708986011        9.5995031081       -2.3285719299
 H        -5.1569778373        7.1841527285       -3.2730499785
 H        -3.8510813444        8.4400923362       -2.9440049511
 H        -4.8174775710       12.6043362038       -6.9356710379
 H        -5.9950297586       11.8928917586       -5.8763697872
 H        -5.7239561364       11.3049847767       -7.5577619540
 H        -1.9585915318       11.2421980271       -4.5848980627
 H        -2.6793759657       10.4720933176       -3.2003660374
 H        -3.3196194912       11.9649500461       -3.9759116177
 H        -2.2473940987        8.8944785738       -6.3046642824
 H        -3.5132646522        7.9756772641       -5.4982326437
 H        -2.1200208856        8.6668685429       -4.5721387454
 H        -9.7849213244        8.7156763861       -1.2253825608
 H        -8.3003835075        9.3368802163       -2.0967006511
 H        -8.7452543092        9.9990568330       -0.5447449692
 H        -8.2393083622        8.2425359728        1.5631032506
 H        -6.9067503936        9.0340596787        0.9859135061
 H        -6.8553299626        7.2923558710        1.1989481684
 H        -7.0959872640        3.1084833182       -1.3388051832
 H        -6.9980070064        1.4658580820       -2.0441499354
 H        -6.7654163559        1.6951800512       -0.3194104475
 H       -10.6351605292        1.5604206966       -2.5042583898
 H        -8.9022887602        0.6615074877       -2.8977539624
 H        -8.9529226390        2.4959994843       -3.0829511189
 H        -7.9013583502       -0.7897606350        5.3931957242
 H        -8.3973088551       -2.2751168602        5.8173142784
 H        -9.5422527853       -1.0711914729        5.6692575884
 H        -7.9496471957       -3.2163045040        2.3653843351
 H        -7.5442724729       -3.2737038023        4.0277932550
 H        -6.7106519076       -1.9474500262        2.9823935105
 H       -15.8914459916       -1.9035512111        3.3931964029
 H       -16.5559170558       -1.0505319646        1.9544405275
 H       -15.6074567529       -0.1230955604        3.0929114557
 H       -13.7221148358       -3.1584151094        0.8545073136
 H       -15.2144243183       -2.9573908797        0.3582168900
 H       -15.0203953584       -3.5273916834        2.0726843216
 H       -14.3686512035        5.4787180586       -1.6914628869
 H       -15.3958331992        6.3738811681       -0.7126942911
 H       -15.8864055134        4.7912033015       -1.4871869131
 H       -13.6095240303        6.2350441440        0.7133650501
 H       -12.5559023630        4.9547524192        0.1505325968
 H       -13.1185203794        5.0305502882        1.7415241622
 Na      -11.4324033687        1.1004194966        1.3425738396
