117

 C       -14.2086799942       -2.4628119752       -5.0212609158
 C       -13.1642630310       -3.2815738434       -4.3054842787
 O       -13.2542434341       -4.4662638008       -4.1068693957
 C       -11.8664363775       -2.5438628534       -3.7809153620
 C       -12.2802203262       -1.5430610540       -2.5927902521
 O       -12.5050053483       -0.3661217969       -2.7922562595
 C       -12.4612037298       -2.1074539688       -1.2184297891
 C       -11.9394310632       -1.0671083681       -0.1467592109
 C       -11.0131235106       -1.7148969324        0.9658214247
 O       -11.4076614756       -2.6227724753        1.6794614823
 C        -9.5277947812       -1.2174057270        1.3139684021
 C        -9.7664083996        0.0894234805        2.0876292633
 O       -10.3978970816        1.0502004418        1.6521722715
 C        -9.2657845489        0.2153804160        3.5389751839
 C        -9.7450667264        1.3350769066        4.4098867061
 C        -9.6607022356        2.7271431854        3.7135877978
 O        -8.9464550625        2.9358603832        2.7549467691
 C       -10.6118079120        3.8861344794        4.2254530531
 C       -11.3715345813        4.3105011332        2.9995418478
 O       -11.0315759404        5.4168291000        2.5189438947
 C       -12.4525222025        3.5460943898        2.2545872225
 C       -12.9699270743        4.4383083209        1.1158572925
 C       -11.8282541668        4.4682391733        0.1139130446
 O       -10.9081572037        3.6767197783        0.1819904741
 C       -11.8271238806        5.6060391402       -1.1231703250
 C       -10.3319535332        5.7250199435       -1.7479671851
 O        -9.3541671976        5.4854024208       -1.0519642856
 C        -9.9884810134        6.2380529017       -3.1885072885
 C        -8.7210622447        7.1686266295       -3.1054400916
 C        -9.1110369472        8.5817145667       -2.6553302086
 O       -10.2227577033        8.9459967777       -2.4610264885
 C        -7.9895455019        9.6785434060       -2.4339888813
 C        -7.2266911593        9.3329067314       -1.1113245262
 O        -6.4771636096        8.3483142059       -1.0974681968
 C        -7.7958171933        9.8283702762        0.2351371677
 C        -7.0606205887        9.1403486586        1.4105329179
 C        -7.1429920728        7.6450644587        1.5277999885
 O        -8.2322764218        7.1273581765        1.7883698432
 C        -5.8364389259        6.8079095504        1.4857570540
 C        -5.8806164295        5.8463224473        0.2055738219
 O        -6.7718604384        4.9858823569        0.1344121943
 C        -4.6387057979        5.8138337240       -0.6963781853
 C        -4.5570456005        7.7737710203        1.5187683196
 C        -5.7496307155        5.7469883573        2.6212551979
 C        -6.9656865351        9.5772986636       -3.6786968590
 C        -8.6022924412       11.0441110967       -2.2874996529
 C       -12.9230700730        5.2992532704       -2.1306276187
 C       -11.9768917478        7.1009456978       -0.5629191887
 C       -11.7188685178        3.6343930195        5.3017579723
 C        -9.7449699441        4.9840825914        4.7319792425
 C        -8.7413484851       -2.3195145552        2.1939451509
 C        -8.6645966123       -0.8847805837        0.0348015714
 C       -10.7105634659       -3.4833427860       -3.4553434091
 C       -11.4080087860       -1.5925217505       -5.0105539509
 H       -14.1969995519       -1.4651047467       -4.7050406435
 H       -15.0685823044       -2.8738537664       -4.6955919858
 H       -14.0019825448       -2.3633038222       -6.0873794557
 H       -12.0701028450       -3.1894539453       -1.2334494523
 H       -13.5037519185       -2.3004338085       -1.1551874292
 H       -12.7450322532       -0.6837943077        0.4560446038
 H       -11.3786409281       -0.3481719807       -0.6912760129
 H        -8.1707220896        0.3513801163        3.3889630606
 H        -9.1731179890       -0.8057766008        4.0118138783
 H        -9.1618003752        1.5016277690        5.3117556903
 H       -10.8073699462        1.2531467473        4.7097039004
 H       -13.2482745370        3.1971788828        2.8776309530
 H       -12.0062556589        2.5687278611        1.9331025747
 H       -13.1817894184        5.4968876666        1.4260734109
 H       -13.8605644319        4.0711014414        0.7282499601
 H       -10.7412386514        6.8000359071       -3.7836892923
 H        -9.7054394704        5.2973331713       -3.7433513743
 H        -8.2197123463        7.3127106129       -4.1270322806
 H        -7.9885249510        6.7086874407       -2.4143244202
 H        -8.8278948430        9.5954878462        0.2179638147
 H        -7.7539896576       10.9050848247        0.4296154782
 H        -7.5448722406        9.5265676733        2.2679324534
 H        -6.0992062669        9.4891027638        1.5464248089
 H        -4.6240741301        4.9543184794       -1.3507804239
 H        -3.6791027341        5.7613266729       -0.1268234075
 H        -4.5610216105        6.7823092575       -1.2271979013
 H        -4.6312511890        8.2752446119        2.4917651535
 H        -4.6469204649        8.4671628037        0.7362983753
 H        -3.4912944280        7.3094176706        1.4675355674
 H        -6.5689016786        4.9581138975        2.5480206363
 H        -5.8896488405        6.2452558402        3.4854055781
 H        -4.8373982356        5.1519271177        2.6363454430
 H        -7.5451634376        9.6461261660       -4.6400895488
 H        -6.5066102996        8.6036804310       -3.6974716943
 H        -6.2462153663       10.4129598341       -3.6903521328
 H        -7.8145780535       11.7235672451       -2.1404897545
 H        -9.3064946095       11.0151876778       -1.5275260036
 H        -9.0916378894       11.2519311310       -3.1946167177
 H       -13.7708871582        5.9753821861       -1.9212466887
 H       -13.2287160782        4.2086645040       -2.0850214719
 H       -12.5570064628        5.5109194937       -3.1422951456
 H       -11.1139566484        7.3652559646        0.1154099849
 H       -12.9149162627        7.3303308530       -0.0373600272
 H       -12.0295066591        7.7994730238       -1.3979745469
 H       -12.3387683963        2.7580831498        4.9902134234
 H       -12.3909482612        4.5346012792        5.3230915665
 H       -11.2930236514        3.4247437493        6.2505125602
 H        -9.0931880443        4.7686779435        5.5943998381
 H       -10.2765645883        5.8480342079        5.0627024358
 H        -9.1037196562        5.4480848873        4.0610338722
 H        -8.6821880010       -3.2146087402        1.5497661965
 H        -9.2807429478       -2.6074437533        3.1398358605
 H        -7.6928854919       -2.0680410126        2.3452820402
 H        -9.1273797661       -0.0373674656       -0.5617125433
 H        -8.4897977954       -1.7452405108       -0.6133075710
 H        -7.6689646671       -0.5937286247        0.3439227516
 H       -11.1402431792       -4.3270272052       -2.9374850194
 H        -9.9238937357       -2.9365248601       -2.8631163503
 H       -10.2189871623       -3.8983663613       -4.3641415506
 H       -12.0911554063       -0.8134676668       -5.2701822448
 H       -11.3336680683       -2.2737983614       -5.8652812275
 H       -10.4161072073       -1.2379469705       -4.6981742394
 Na       -8.8543342957        4.8375874595        1.3010695488
