117

 C       -16.2296520425        5.8701240108        1.9451711997
 C       -15.9261654152        4.5794030262        1.1648899027
 O       -16.6448485990        3.6102666883        1.2857915152
 C       -14.7339556393        4.5701435963        0.0595745358
 C       -14.0173395260        3.1880049676        0.1215401922
 O       -12.9524245706        3.0813142298        0.7249877124
 C       -14.8262803037        1.9932913698       -0.3706032401
 C       -15.3270677015        0.9258161356        0.6763323903
 C       -14.2478633527       -0.0890328926        0.7226927203
 O       -13.2979449473       -0.2628564200        0.0126963976
 C       -14.4810680710       -1.2404795640        1.8777675854
 C       -13.2524207411       -1.1349839073        2.8455216130
 O       -12.7623982799       -0.0655055616        3.2205404516
 C       -12.7388725942       -2.4842864045        3.6634874846
 C       -11.4917478554       -2.1649566394        4.3969092304
 C       -10.3058660499       -2.3134472998        3.3435789850
 O       -10.4571129872       -2.8679197217        2.2748421196
 C        -8.9584748898       -1.6089563163        3.6094038465
 C        -9.0898313491       -0.1747762479        2.7537706778
 O       -10.0219873924        0.5602202571        2.9212215162
 C        -7.9439348381        0.1173712871        1.7596049199
 C        -8.0272023910       -0.5549511640        0.4010707581
 C        -9.1735741203        0.2394706097       -0.3295036686
 O       -10.2823815243       -0.1750566889       -0.1099099345
 C        -8.6850084751        1.5843892132       -1.0515794535
 C        -9.2602328837        2.8955017104       -0.3284423680
 O       -10.0566774743        2.7551574368        0.6516572872
 C        -9.0226807448        4.2458643370       -1.1168981085
 C        -8.6491108439        5.3958747150       -0.3086789770
 C        -8.9758723536        6.7088715440       -0.9850401406
 O        -9.8864643737        6.8784841075       -1.7167190238
 C        -7.8808393281        7.9849273395       -0.6984916269
 C        -6.5057767208        7.6711528487       -1.3155236283
 O        -5.9341336647        6.5611859572       -0.9541625642
 C        -5.8812017091        8.8730469480       -2.0571126623
 C        -4.7074611511        8.5842297721       -3.0353787123
 C        -5.0210342930        8.8692061048       -4.5109429501
 O        -6.1854007885        8.9106640130       -4.8714806396
 C        -3.7807543366        9.4650708775       -5.2679775644
 C        -4.0821243790       10.2343970584       -6.5344863608
 O        -3.2804534921       10.3013035731       -7.4336250579
 C        -5.3753832978       11.1371168836       -6.6106879504
 C        -3.2077593609       10.6382593482       -4.3942244940
 C        -2.5925719648        8.4160399031       -5.5232979804
 C        -8.4775484138        9.2823393569       -1.1216412410
 C        -7.7371080325        7.9686429465        0.8104375459
 C        -7.1111456631        1.8261385406       -1.2395049817
 C        -9.1896458898        1.2958767352       -2.5202245474
 C        -8.8319207318       -1.0671188593        5.0994003552
 C        -7.7455918303       -2.5271869674        3.1473898519
 C       -15.6733213744       -1.0945685969        2.7020743371
 C       -14.3492664394       -2.4843930246        1.0097647229
 C       -15.4287905630        4.8404955370       -1.2964493794
 C       -13.6963666339        5.7083538438        0.4471024284
 H       -15.4166992973        6.4242294032        2.3764773051
 H       -16.7430474980        5.6877592488        2.8570703080
 H       -16.7755397961        6.5594106350        1.3137301684
 H       -14.3291899217        1.6886433658       -1.3692332334
 H       -15.7862487662        2.3393188375       -0.7569037383
 H       -16.3370844725        0.7291639676        0.3814199094
 H       -15.4489786622        1.2553970311        1.6972052168
 H       -12.6348232627       -3.0919733755        2.7852159700
 H       -13.5590960162       -2.8610562678        4.3225637227
 H       -11.4759412818       -2.6414232891        5.3124612806
 H       -11.3515443941       -1.1209223645        4.7825769346
 H        -7.0743671439       -0.0055310855        2.2969170834
 H        -8.0046557837        1.2713853899        1.6200387433
 H        -8.2999538934       -1.6084244522        0.8146597325
 H        -7.0275770160       -0.6139808999        0.0022432104
 H        -9.8485058734        4.2360305384       -1.7929400360
 H        -8.1699860851        4.0541447676       -1.7467635068
 H        -7.5123181786        5.2670755472       -0.1701952490
 H        -8.7833936676        5.3793368932        0.7678547741
 H        -5.6785635338        9.8257504909       -1.4578472308
 H        -6.7292722592        9.3023971530       -2.6690205189
 H        -4.5380106097        7.4871235362       -3.1063504992
 H        -3.9751207249        9.2210952017       -2.6465651028
 H        -5.3106537146       12.0052938731       -5.9123567437
 H        -6.2465577564       10.5723216847       -6.1976704163
 H        -5.5870437405       11.6005074491       -7.5670034668
 H        -2.5982896913       11.3231158532       -4.9853767272
 H        -2.7670583662       10.4051152014       -3.4864121824
 H        -3.9958388725       11.3961262758       -4.1359067865
 H        -2.1877887314        8.5132384420       -6.5371385432
 H        -2.7945782429        7.4305577102       -5.4360930437
 H        -1.8249071205        8.7546524154       -4.8949109099
 H        -8.8537981646        9.8110612367       -0.1634904305
 H        -9.2970388059        8.9073754733       -1.7990320943
 H        -7.7320383571        9.9992859649       -1.5835095173
 H        -8.7043108702        8.0872017236        1.3472298240
 H        -7.1183785342        8.8161545058        1.2138952118
 H        -7.3784477003        7.0026217002        1.3058030767
 H        -6.8726758924        2.0400812708       -2.2767546688
 H        -6.5299676088        0.9163255280       -0.8817838331
 H        -6.8375799613        2.6831966960       -0.5968955834
 H       -10.1814736536        0.8006015360       -2.4881055319
 H        -8.5655567346        0.6491453696       -2.9950668809
 H        -9.3007918525        2.2441500559       -2.8082427407
 H        -7.8092216895       -0.9619416883        5.5603358417
 H        -9.2695193365       -1.7937532379        5.8669618034
 H        -9.3460669050       -0.1508522150        5.3109696604
 H        -7.5373807710       -2.5192611838        2.1620704121
 H        -8.0520116751       -3.5208000571        3.4301893776
 H        -6.9167156989       -2.1023666651        3.7688809312
 H       -15.6302105007       -1.7771815861        3.5826105841
 H       -16.5219087757       -1.1941257371        2.1625171951
 H       -15.5637354881       -0.0204679725        2.9331471098
 H       -13.5971372471       -2.4621179135        0.2521504717
 H       -15.2880457137       -2.5388396138        0.4438875004
 H       -14.2846285135       -3.4570632779        1.6824918538
 H       -14.8874049377        4.5986379744       -2.2136427413
 H       -15.7964058133        5.9516996372       -1.2860266110
 H       -16.2144923708        4.1133245940       -1.4305057366
 H       -14.2067198229        6.6725683577        0.3733138186
 H       -12.7127965071        5.6604149287       -0.0655153694
 H       -13.3614533031        5.5632326394        1.5415057322
 Na      -11.9547647121        1.0917869565        1.1202779294
