117

 C       -16.7293664439        6.2050076838        1.3471051821
 C       -16.3191214589        4.9140414707        0.8315972772
 O       -17.0100099834        3.9839409143        1.2151727752
 C       -14.9954978077        4.7484496751       -0.0830345303
 C       -14.1846248330        3.4388983410        0.1642108140
 O       -13.2187711265        3.5418878708        0.9452295664
 C       -14.7314465147        2.1562530991       -0.4075657439
 C       -14.9555811786        1.1891423333        0.7092832771
 C       -13.9828659672       -0.0974017806        0.6788744604
 O       -12.9932983871       -0.0208200764       -0.0930253636
 C       -14.3935215359       -1.2089462060        1.8323128098
 C       -13.2832577876       -0.9727068559        2.9496372080
 O       -12.5439874190        0.0065658646        2.9639805992
 C       -13.0194831831       -2.0002621512        4.1253505766
 C       -11.7593357283       -1.6250317981        4.8242781344
 C       -10.6082140175       -1.9072818437        3.8828935766
 O       -10.7075895532       -2.6267053818        2.9196533694
 C        -9.2052121301       -1.2885322363        4.0690997442
 C        -9.0867183801       -0.2955722958        2.7891198402
 O        -9.6994398243        0.7454929742        2.7493297966
 C        -8.0120311956       -0.5595997910        1.7954973766
 C        -8.3706307498       -0.8195381605        0.2171023275
 C        -9.2186684784        0.2906676609       -0.5339224037
 O       -10.3778810976        0.4953514606       -0.1882595754
 C        -8.4960344840        1.5432737206       -1.4656885287
 C        -8.9554769154        2.9319408943       -0.8345528083
 O        -9.8516678372        2.9763086977       -0.0950690934
 C        -8.3301918903        4.1601029330       -1.5692881465
 C        -8.2138240802        5.2604644852       -0.5860897060
 C        -8.5086545498        6.6799268287       -1.0771313323
 O        -9.2076412873        6.8438966873       -2.0846351685
 C        -7.8612866421        8.0189786718       -0.3055912854
 C        -6.4541510173        7.8771275597       -1.1966470195
 O        -5.4282343834        7.5893904521       -0.6227676072
 C        -6.4423472260        8.2885857919       -2.6006088551
 C        -4.9063912424        8.6078132812       -2.9432110414
 C        -4.8130884801        8.2145737062       -4.4790865490
 O        -5.5410827522        7.3220263798       -4.9071892243
 C        -3.6896658104        8.9654982978       -5.2526569094
 C        -4.1832711429        9.3652445126       -6.6599055712
 O        -3.9661643668        8.8090149545       -7.7236627136
 C        -5.1192548790       10.5029102686       -6.6469718201
 C        -3.4227614667       10.2472183477       -4.5365721652
 C        -2.4807138006        8.0241940601       -5.3221894470
 C        -8.7559045395        9.2762074795       -0.5103888741
 C        -7.7617311873        7.7069909208        1.0927696103
 C        -7.0121370839        1.4667323555       -1.2185212910
 C        -9.0481239056        1.4470093768       -2.8797434461
 C        -9.0773049049       -0.5212483977        5.3975114639
 C        -8.2255370639       -2.5278578303        4.0363490988
 C       -15.7016088085       -1.0423967220        2.6799420071
 C       -14.3428952464       -2.6999920187        1.2213667171
 C       -15.6001581309        4.9110128514       -1.4751828902
 C       -13.9916820326        5.9397336364        0.2970288295
 H       -16.4023081258        6.3807947417        2.3743475011
 H       -17.7786085396        6.3256259700        1.2292436558
 H       -16.3275136526        7.1007864369        0.9700390632
 H       -13.9836302659        1.7723238999       -1.2216785151
 H       -15.5581387719        2.3261549745       -0.9732162334
 H       -15.9774979137        0.8122591722        0.4921047091
 H       -14.9325424437        1.5700125367        1.7249190196
 H       -13.0308327814       -2.9951823987        3.6387460966
 H       -13.9358979383       -1.8948650468        4.7771815568
 H       -11.5391652229       -1.9848952985        5.9234117894
 H       -11.6061946310       -0.5484640698        5.0349712500
 H        -7.3858660226       -1.4240939258        2.1112427105
 H        -7.4220427583        0.3825888916        1.7884649424
 H        -8.9339433052       -1.6727908639        0.1059223671
 H        -7.3952030106       -1.0045220614       -0.2061484847
 H        -9.0922478272        4.5028430068       -2.2791774637
 H        -7.5028327967        4.0441468809       -2.2717013093
 H        -7.2550199995        5.2663160799        0.0101735853
 H        -8.9323200327        5.2144345485        0.3152372902
 H        -7.0063875394        9.1818432459       -2.8754402933
 H        -6.9344771696        7.4139091090       -3.1849590172
 H        -4.2220322261        7.8631745837       -2.4773681671
 H        -4.7486534652        9.6961766533       -2.6206497299
 H        -5.9627194151       10.2702267789       -5.9014615954
 H        -5.6480407523       10.5408484651       -7.5978953405
 H        -4.5824273758       11.4470155501       -6.3685917518
 H        -2.4865945070       10.5509339054       -4.7840665410
 H        -3.1857413681        9.9780634452       -3.4344994718
 H        -4.2010537477       11.0413264484       -4.4378190470
 H        -1.6880262693        8.5663617344       -5.7855246869
 H        -2.6090152628        7.1642769576       -5.8529579441
 H        -2.3417284316        7.7131368809       -4.3292790875
 H        -9.8053919090        8.9312679069       -0.9116829920
 H        -8.4347632038        9.9018764926       -1.2518479354
 H        -8.8227717240        9.6402217607        0.5076697860
 H        -8.8286053893        7.4196924403        1.4349176312
 H        -7.3607525511        8.4236769408        1.8818170954
 H        -7.1470900524        6.8579605320        1.3300705163
 H        -6.5739640209        2.3335964754       -1.8257442439
 H        -6.5130164689        0.6910247318       -1.7356096390
 H        -6.6196835926        1.5247816740       -0.2115315366
 H       -10.1183022617        0.8753977951       -2.6699915455
 H        -8.2223959856        0.8989705022       -3.4609590115
 H        -9.2946097726        2.4500668337       -3.3683751073
 H        -8.0435038938       -0.3119801620        5.6528290137
 H        -9.5337657585       -1.0223955672        6.2231939106
 H        -9.3633826529        0.5560648809        5.3878256720
 H        -8.1992533648       -2.9405728037        3.0359549234
 H        -8.7024321729       -3.2497958992        4.8344831372
 H        -7.2801912525       -2.3367563989        4.4733973288
 H       -15.7081079306       -1.7610843796        3.5227129810
 H       -16.5856821254       -1.1304644057        2.0590792860
 H       -15.6046669287       -0.0942731692        3.2583230653
 H       -13.3981925520       -3.0714360668        0.8282389079
 H       -15.2497424894       -2.7759013232        0.6491871514
 H       -14.5579149390       -3.4331887993        2.0114004794
 H       -14.7319564714        4.9177290727       -2.2341893357
 H       -16.1819352454        5.8062425323       -1.5435509970
 H       -16.3000173212        4.1399874381       -1.7726473715
 H       -14.0588839345        6.9237584838       -0.3363409322
 H       -13.0113488275        5.6166356073        0.1342759051
 H       -14.1932273756        6.1105459775        1.3367549316
 Na      -11.7033272648        1.7704463788        1.4467650726
