117

 C       -16.7903169442        6.3673196524        1.2625659409
 C       -16.3671447559        4.9552457738        0.9010821496
 O       -16.9227566231        3.9104990877        1.1092052681
 C       -15.0301459907        4.8259824597       -0.0243454434
 C       -14.2251817085        3.4857337568        0.1772313556
 O       -13.1519601385        3.4698694604        0.8340300180
 C       -14.7872065431        2.2111196437       -0.4474369740
 C       -15.0118484917        1.1277143012        0.6832630190
 C       -14.0502492965       -0.0041599776        0.7128080620
 O       -13.1023645445       -0.1619802888        0.0092285085
 C       -14.2674079733       -1.1369086537        1.8757248665
 C       -13.1575581296       -0.9299111941        2.8574567182
 O       -12.5355169364        0.1080595458        2.9657827240
 C       -13.2144419309       -1.8452719442        4.1533159690
 C       -11.8710263380       -1.5555078910        4.9060404862
 C       -10.6803959884       -1.7935964603        3.8718259929
 O       -10.8046481201       -2.6445996566        3.0027904879
 C        -9.2038803459       -1.1853052701        4.0889662636
 C        -8.9598190454       -0.2402794026        2.7775103574
 O        -9.7606425293        0.6514429139        2.6666679939
 C        -7.9120074784       -0.6417873360        1.6062015674
 C        -8.5036396147       -0.8049985461        0.2427141820
 C        -9.2009965920        0.5130398585       -0.3015505709
 O       -10.4282332777        0.6194930166       -0.1495897680
 C        -8.4806701968        1.4137255977       -1.3272545530
 C        -9.0218820173        2.9421893387       -0.9821194085
 O        -9.8513051718        3.1166052564       -0.0967083403
 C        -8.3855936905        4.1453821483       -1.5953075633
 C        -8.1253087028        5.3342477666       -0.5893560233
 C        -8.5001166265        6.7327196460       -1.1378286476
 O        -9.1262090703        6.8638618921       -2.1396283834
 C        -7.9507412835        7.8921182267       -0.3059647816
 C        -6.4374676062        8.0865293070       -1.0999909480
 O        -5.4246370036        7.7595492800       -0.4320579345
 C        -6.5435522356        8.2224460237       -2.5753302739
 C        -5.1478792569        8.6054522843       -3.0635239924
 C        -4.8180413407        8.0041464821       -4.3711086984
 O        -5.3093862053        7.0363911124       -4.8996419420
 C        -3.7963587406        8.8872867466       -5.1952079277
 C        -4.3557632644        9.2088124557       -6.7460181598
 O        -3.9209054664        8.5417237655       -7.6325909915
 C        -5.1312991955       10.6048377118       -6.8478326756
 C        -3.2483820565       10.2195337362       -4.5418560569
 C        -2.5898146802        7.8793876438       -5.2786795812
 C        -8.7358776200        9.1613884466       -0.5517120001
 C        -7.5929347345        7.6300829498        1.1398444237
 C        -6.8874085951        1.1737131186       -1.2376102446
 C        -8.9796573504        1.3799132547       -2.8248081772
 C        -9.0600242882       -0.3387503466        5.4348531235
 C        -8.3004496991       -2.3782002650        4.0534821993
 C       -15.4953237198       -1.0370862843        2.5969272290
 C       -14.2330027182       -2.5253848448        1.2112733317
 C       -15.4641480857        4.8477703918       -1.4829517284
 C       -14.0863130601        6.0311662193        0.3704880517
 H       -16.3853085940        6.8789688919        2.1379951151
 H       -17.8449999227        6.4871069800        1.1547427752
 H       -16.4465153404        7.1526201111        0.5616160569
 H       -14.0303481165        2.0207084551       -1.1414663492
 H       -15.7071216698        2.3335830929       -1.0863636484
 H       -16.1053102413        0.9078408195        0.6285867840
 H       -14.7768146493        1.4409066707        1.7225138428
 H       -13.3871465408       -2.8510178680        3.8625397819
 H       -14.0865095595       -1.5045263445        4.7623700856
 H       -11.6198801800       -2.2448023207        5.6921371411
 H       -11.7468864342       -0.5992803056        5.5124376281
 H        -7.4848817177       -1.5214996384        1.8574381877
 H        -7.1425573689        0.1727024767        1.6150818733
 H        -9.3817050290       -1.5767015738        0.2787726563
 H        -7.7443713862       -1.2184967402       -0.3684988450
 H        -9.1222121755        4.5163952905       -2.4202888555
 H        -7.5020325767        3.9950061732       -2.2347782451
 H        -7.0498966689        5.3232751332       -0.2315831537
 H        -8.6048407625        5.3721207533        0.3534169352
 H        -7.1725903554        8.9889053066       -2.8998411614
 H        -6.9852822096        7.2417646699       -2.8838273798
 H        -4.3407049826        8.0654166091       -2.4637504732
 H        -5.0179138509        9.7083597527       -3.0157321479
 H        -5.9232399193       10.8243864812       -6.0850080257
 H        -5.6219105912       10.6805229780       -7.8541342286
 H        -4.2741381144       11.2895523379       -6.7610175706
 H        -2.4622540994       10.8456298776       -5.1377264249
 H        -2.5661413280        9.9509387710       -3.7107116030
 H        -4.0756634849       10.7760111483       -4.0810207967
 H        -1.8987001038        8.3933711768       -6.0366839964
 H        -2.7651000517        6.8615358689       -5.5911743388
 H        -2.2429454370        7.7501054366       -4.2692424552
 H        -9.6849791871        8.9991210820       -0.9802008799
 H        -8.1385510963        9.8050909515       -1.2075508977
 H        -8.7853813994        9.5958927937        0.3998188893
 H        -8.4286327246        7.4774170952        1.7885747212
 H        -7.1042845468        8.4965251469        1.5230250008
 H        -6.8127229961        6.8771194286        1.4198283592
 H        -6.5105063883        1.7368336204       -2.0682593445
 H        -6.3894622406        0.2263964393       -1.3896333177
 H        -6.3546493068        1.6415432568       -0.3919883224
 H        -9.9709680140        0.9166454074       -2.9910756304
 H        -8.0240120556        1.0361576687       -3.3236801078
 H        -9.0455611053        2.4679215549       -3.2007460217
 H        -8.0364118227        0.0354507792        5.5834520019
 H        -9.3366329307       -0.9253369719        6.2998914631
 H        -9.5723819927        0.5736102383        5.4879776965
 H        -8.4852977880       -3.0070937269        3.2125334250
 H        -8.4473532426       -2.8324183341        5.0453772424
 H        -7.2042470167       -2.0078233426        4.1708714623
 H       -15.7404998866       -1.8586839054        3.3200144370
 H       -16.2409498616       -0.8644113649        1.9000167371
 H       -15.3317832765       -0.1867734888        3.3082095920
 H       -13.3563047111       -2.8539692594        0.7835905439
 H       -15.1195113846       -2.5895787951        0.6691325830
 H       -14.4181329552       -3.3195998582        2.0048172966
 H       -14.6665640865        4.8399634449       -2.2032944166
 H       -16.1348564650        5.7332547632       -1.7079849454
 H       -16.1189501687        4.0364639026       -1.6200310681
 H       -14.3014749739        6.9231832649       -0.0864427094
 H       -13.0989414975        5.7724606689        0.0664764356
 H       -14.1951566439        6.0947302227        1.4522715367
 Na      -11.7728701801        1.6216019577        1.4036063096
