117

 C       -14.2846341642       -2.4920094359       -4.8494707751
 C       -13.2507627711       -3.3096425610       -4.1186914300
 O       -13.3191758301       -4.4889152547       -3.9010643969
 C       -11.8260744573       -2.5507086096       -3.7386228625
 C       -12.3385033843       -1.5203136062       -2.5344190926
 O       -12.5936526137       -0.3597528362       -2.8063887779
 C       -12.3937636839       -2.0171968838       -1.0143795280
 C       -11.8459490652       -1.0413473563       -0.0442482222
 C       -11.0132473039       -1.7376853056        0.9925518450
 O       -11.4774723092       -2.7078275938        1.6137295390
 C        -9.5657359512       -1.1515330279        1.3414247213
 C        -9.7071362060        0.1702026428        2.1656698283
 O       -10.2911545242        1.1441241441        1.7322970223
 C        -8.9434190550        0.3046764616        3.6071019503
 C        -9.5143946790        1.3350562080        4.5378378777
 C        -9.6838782266        2.7366052948        3.8352783963
 O        -8.8012261331        2.9962193212        2.9483746286
 C       -10.6011544482        3.9114713818        4.2776173749
 C       -11.2458628203        4.3955809259        2.8508742719
 O       -10.8602596342        5.3873568850        2.2839320961
 C       -12.3740704524        3.5484359635        2.2458994644
 C       -12.9478947399        4.2387327262        1.0173462702
 C       -11.7882668758        4.4728461656        0.0041557529
 O       -10.9696140818        3.6074635990       -0.0803315665
 C       -11.7540801960        5.5557610563       -1.1465476581
 C       -10.3048290350        5.6354986592       -1.7409456588
 O        -9.3847196257        5.6213785125       -0.9612436227
 C        -9.9677039580        6.0993286418       -3.1447142195
 C        -8.7585605892        7.0672392539       -3.0951716786
 C        -9.0932441447        8.5685108517       -2.7343813011
 O       -10.2650325708        8.8751128034       -2.6090095833
 C        -7.9977399723        9.7091075503       -2.4949023981
 C        -7.3349811999        9.1558076317       -1.0827730175
 O        -6.4127778334        8.3816038363       -1.1169052975
 C        -7.7899203004        9.9001255249        0.2132608049
 C        -7.0857159338        9.3053620399        1.5547257399
 C        -7.1939887960        7.7268232957        1.5604454083
 O        -8.2999647176        7.2445982835        1.6537760785
 C        -5.9255280453        6.8593608760        1.4544356747
 C        -5.8529483170        5.8757738704        0.2185148321
 O        -6.7441838297        5.0978495721        0.0509257217
 C        -4.7145637665        5.9476904215       -0.7739343189
 C        -4.6942151451        7.7508515379        1.5393020913
 C        -5.8889146736        5.8180155944        2.6371445371
 C        -6.9199781309        9.5953458133       -3.6450312519
 C        -8.6585218876       11.0953978561       -2.4919896858
 C       -12.9616465157        5.1348035852       -2.1300319214
 C       -12.0442226514        6.9647589085       -0.5584544661
 C       -11.6701591068        3.4580350402        5.2952276558
 C        -9.6033522126        5.0317423293        4.7705864438
 C        -8.8331812468       -2.2673535989        2.0487507871
 C        -8.7489159285       -0.7798481180        0.0673387169
 C       -10.8224679259       -3.6006365833       -3.4829726372
 C       -11.3087819572       -1.6759116225       -4.9704910251
 H       -14.1297038114       -1.4761490642       -4.9096966806
 H       -15.1534305099       -2.7371806471       -4.2555724036
 H       -14.2749582023       -2.8630709633       -5.8662030909
 H       -12.0875865483       -3.0734092970       -0.9979921805
 H       -13.5233275250       -2.1018794964       -0.8137820148
 H       -12.6433621213       -0.5215435445        0.5503334664
 H       -11.2397053583       -0.3551520867       -0.6171247637
 H        -7.8638478878        0.2310007742        3.5974117152
 H        -9.1143997149       -0.6763328290        4.0501404355
 H        -8.8130229511        1.6483491370        5.3837931208
 H       -10.4504764220        1.0200483191        4.9439133465
 H       -13.1720637857        3.3247194415        3.0369535591
 H       -11.9955918606        2.5703994118        2.0952961829
 H       -13.4989461339        5.1742409564        1.2959190481
 H       -13.7065641595        3.5882711151        0.5221520833
 H       -10.8162959088        6.6397211155       -3.6068032345
 H        -9.7222251369        5.2336615531       -3.7974987170
 H        -8.1488437891        7.1275661862       -4.0459996660
 H        -8.1147687194        6.6145024577       -2.2789050010
 H        -8.8716263947        9.9765633131        0.3046203678
 H        -7.4978177279       10.9633168882        0.1195366925
 H        -7.6223898454        9.7571448905        2.3795951222
 H        -6.0342464577        9.6177235456        1.6944713802
 H        -4.6589216196        4.9498425824       -1.1981320808
 H        -3.7781743197        6.2053413812       -0.3745438678
 H        -4.8969034633        6.6823365160       -1.4903868670
 H        -4.8506641876        8.3890737336        2.4274428889
 H        -4.7486686470        8.3485730961        0.6739459794
 H        -3.7085657767        7.2818734237        1.6231823845
 H        -6.8059589738        5.2909363019        2.7092638995
 H        -5.5672379822        6.2099849488        3.6046061906
 H        -5.2486595116        5.0214934214        2.2975607979
 H        -7.5913595328        9.6458166652       -4.5085534458
 H        -6.3468791938        8.6782228003       -3.7461871306
 H        -6.3444120541       10.5730657225       -3.7900670430
 H        -7.9294333773       11.8023348006       -2.7810835110
 H        -8.9577260006       11.2201439581       -1.4497275918
 H        -9.5722261808       11.0998608484       -3.0325647547
 H       -13.8127470563        5.7913914316       -1.8123306584
 H       -13.2343882264        4.1016407372       -1.9433487341
 H       -12.7269936125        5.2560257072       -3.2348898542
 H       -11.5069344404        7.2835267369        0.3350196107
 H       -13.1025691506        7.0332356280       -0.4180899370
 H       -11.9338478914        7.6328321605       -1.3372542752
 H       -12.0246727480        2.4763615277        5.0615822966
 H       -12.5332684754        4.1605166341        5.0950610159
 H       -11.3686154383        3.5412223972        6.3406310043
 H        -9.2526093324        4.9404947541        5.8095985030
 H        -9.8024662297        6.0977527616        4.7388620408
 H        -8.6869795184        5.0144084181        4.1965635570
 H        -9.0999825026       -3.2411368764        1.6125328626
 H        -9.1335805693       -2.3403787783        3.0998400270
 H        -7.7857231309       -2.1656776916        1.9135735035
 H        -9.2280698400        0.0344485021       -0.4485045864
 H        -8.7764715905       -1.6865242009       -0.5602378708
 H        -7.6899611426       -0.5862853788        0.1797870763
 H       -11.4119090164       -4.4626948411       -3.0891955143
 H        -9.9577972977       -3.2935749119       -2.8513974446
 H       -10.4086717475       -3.9420215794       -4.3903304902
 H       -12.1179623699       -1.1039130596       -5.3903574091
 H       -10.9420209225       -2.3433784802       -5.7111915479
 H       -10.4979121090       -1.0753424278       -4.5417657747
 Na       -8.9543292118        4.7889737526        1.1724772978
