117

 C       -17.0483288506        6.2310123397        1.0294236790
 C       -16.3231442982        4.9265873378        0.7395037817
 O       -16.8554809059        3.8802736742        1.1055835110
 C       -14.9358043604        4.8912678819       -0.0700586889
 C       -14.1291400662        3.5177422447        0.2455774972
 O       -13.0751060859        3.5125034674        0.8453716250
 C       -14.8674937971        2.2026459258       -0.3693034767
 C       -15.2537613280        1.1828107771        0.7155010329
 C       -14.2677429787        0.0052102058        0.7572640634
 O       -13.3432699517       -0.0423126176       -0.1183884970
 C       -14.2649561896       -1.0131288793        1.9265821524
 C       -13.2718920975       -0.7157707649        3.1341974015
 O       -12.4979045960        0.2179003211        2.9180444455
 C       -13.1078664214       -1.5494566589        4.4088855361
 C       -11.7426478927       -1.5006864864        5.1155617202
 C       -10.7081538005       -1.8246703019        3.9534052246
 O       -10.9325836554       -2.5428000559        3.0059012453
 C        -9.2542151163       -1.1379409709        4.0526660081
 C        -9.1357300062       -0.2820859790        2.6763598641
 O        -9.7530616737        0.7587470582        2.5601622500
 C        -8.0233438222       -0.6525474610        1.6211923528
 C        -8.8459634595       -0.8692247188        0.3287294566
 C        -9.3320714346        0.4442591039       -0.2127431948
 O       -10.5016615819        0.7304336589       -0.3751331864
 C        -8.4300544025        1.3480256779       -1.1840611281
 C        -9.0199536529        2.8397467486       -0.9226164355
 O        -9.7329573717        3.1382818488       -0.0237644363
 C        -8.3219876678        4.1262221925       -1.5927393074
 C        -7.8921205120        5.2249221168       -0.5922122692
 C        -8.4481198584        6.6307127368       -0.9550461404
 O        -9.1718170560        6.7951198403       -1.9613937679
 C        -7.9311070211        7.8782541713       -0.1872295542
 C        -6.4590594595        8.0754743999       -0.9097853656
 O        -5.4670101424        8.3084832502       -0.2992187626
 C        -6.4949637181        7.9260112439       -2.5865855567
 C        -5.3844335407        8.7790899892       -3.2067655737
 C        -4.5937642208        8.0643709119       -4.4545410183
 O        -5.0425188184        6.9183829314       -4.6282676712
 C        -3.6298615122        8.7594431473       -5.3406408633
 C        -4.3099996088        8.9229999790       -6.8500383794
 O        -4.1596072188        8.0260357834       -7.6685886353
 C        -4.8933744808       10.3221887198       -7.1558848883
 C        -3.0189847882       10.0352082835       -4.6075415685
 C        -2.4536909296        7.6946644987       -5.6186310045
 C        -8.7826696945        9.0993542850       -0.3747572020
 C        -7.7715442747        7.5571025950        1.2531523264
 C        -6.9611704351        1.3552711809       -1.0969702932
 C        -8.9818154267        0.8900783057       -2.6332166787
 C        -9.1480411811       -0.0062758056        5.0765505814
 C        -8.0877288843       -2.2051717982        4.2955365024
 C       -15.7293365917       -1.0280482094        2.5193439272
 C       -13.9202226567       -2.2749503340        1.3224937696
 C       -15.2098080151        5.1479852468       -1.5924354989
 C       -13.9698197974        6.0139887725        0.3593447620
 H       -16.3844769479        7.0234789091        1.3797156571
 H       -17.9755948553        6.1040483761        1.6142096857
 H       -17.4580591123        6.8138344321        0.2111961914
 H       -14.2204006120        1.9369108080       -1.3136944751
 H       -15.7987795962        2.5479139383       -0.6829488130
 H       -16.2447871234        0.9749960168        0.3383121159
 H       -15.3189168615        1.5266891781        1.7589608558
 H       -13.4236301167       -2.5770025196        4.0169622983
 H       -13.7641092789       -1.2918592230        5.2600736878
 H       -11.8238885577       -2.2076158554        5.9908284819
 H       -11.4939716300       -0.5683583484        5.4910857596
 H        -7.4205721661       -1.6052967962        1.9164267757
 H        -7.4050541111        0.2177451462        1.7006086119
 H        -9.5901630537       -1.6018953676        0.4303687172
 H        -8.1248949211       -1.1488018071       -0.5649332391
 H        -8.9834264344        4.4859203567       -2.3517926980
 H        -7.4125755487        3.9176800522       -2.1921303975
 H        -6.8282096997        5.2742583838       -0.4802409647
 H        -8.3479238639        5.0623251805        0.4275970084
 H        -7.4736148291        8.2895449228       -3.0007646907
 H        -6.2480322644        6.8955677582       -2.8959633969
 H        -4.7292116125        9.0864311406       -2.3692108211
 H        -5.6633139902        9.6873020785       -3.7520033248
 H        -5.3468382182       10.6368279747       -6.2437342182
 H        -5.6095581342       10.2850498177       -7.9112426621
 H        -4.0836766850       11.0025106506       -7.3714479046
 H        -2.4750997316       10.5246776130       -5.2860179360
 H        -2.1570771844        9.8872996934       -3.8707695015
 H        -3.8747933036       10.6828751781       -4.3307395288
 H        -1.8438052274        7.9230903497       -6.4770936735
 H        -3.0829389093        6.8554126185       -5.9251217375
 H        -2.0464893696        7.2211488954       -4.6710298320
 H        -9.5521899857        8.8001806984       -1.2166246115
 H        -8.1076433877        9.9296000960       -0.5295284347
 H        -9.3642709656        9.3337567304        0.5676084837
 H        -8.6716388342        7.4639149097        1.8655792227
 H        -7.3041369112        8.4225652421        1.7499743762
 H        -7.0788336913        6.8310953003        1.4254311196
 H        -6.2682195034        2.0231816699       -1.6869965980
 H        -6.5216441210        0.3710660187       -1.2613265240
 H        -6.6391591015        1.5762766944       -0.0534937341
 H       -10.0319630333        1.2253172463       -2.5255036674
 H        -8.7089261323        0.0191573292       -3.0641349259
 H        -8.5716199414        1.5849632060       -3.2224047207
 H        -8.1571524113        0.4431662967        5.0320105374
 H        -9.1824714570       -0.4056189165        6.0934531974
 H        -9.9553082860        0.8002445754        5.1351455282
 H        -8.2640989312       -3.0833790146        3.6414941064
 H        -7.9861168939       -2.4859360012        5.3734208180
 H        -7.2266473857       -1.7475076342        4.0272119275
 H       -15.5871690418       -1.8331407742        3.1849594490
 H       -16.4521243954       -1.3835508693        1.7404795220
 H       -16.1062706231       -0.2239135587        3.0909427552
 H       -12.9116855662       -2.2280600376        0.7897057348
 H       -14.7576165111       -2.6811016056        0.6859139703
 H       -13.7495820768       -3.0399789695        2.0298785721
 H       -14.3030327784        4.9345031018       -2.2299730367
 H       -15.2857989860        6.1807113463       -1.7810789805
 H       -16.1897026314        4.6766003039       -1.8475744929
 H       -14.6797033054        6.9521621856        0.4688782762
 H       -13.1959472323        6.1944517954       -0.3744017684
 H       -13.6212028001        5.7444069285        1.3259031644
 Na      -11.7431080818        1.5972402777        1.0744794531
