117

 C       -17.0810193858        6.1417003129        0.9038984137
 C       -16.2745985759        4.8812047992        0.6970162945
 O       -16.7079622310        3.8015800505        1.0564814086
 C       -14.8563955416        4.9833575612       -0.0940183062
 C       -14.2254682314        3.6433922829        0.1449096894
 O       -13.1875887597        3.4801522090        0.8364175737
 C       -14.9790387344        2.3838486730       -0.3991665383
 C       -15.3484501665        1.4202716686        0.6782067389
 C       -14.2917350442        0.2527843660        0.8640513224
 O       -13.5236102337        0.0605553429       -0.0689884982
 C       -14.2897180490       -1.0160437132        2.0113388986
 C       -13.2838754271       -0.5494652611        3.1254884197
 O       -12.4322669834        0.3248354580        3.0210781826
 C       -13.2593663610       -1.4815830741        4.4130950232
 C       -11.7195472308       -1.4106518309        4.9595604984
 C       -10.6560585419       -1.7070983621        3.9147854995
 O       -10.9005953856       -2.5289848474        3.0613798915
 C        -9.2066171827       -0.9797134384        4.0546455687
 C        -9.0468823245       -0.1942261312        2.6841483230
 O        -9.8439865793        0.7073231520        2.6051317186
 C        -8.1752568768       -0.7429497776        1.5849209013
 C        -8.8281720201       -0.9271205379        0.1725344849
 C        -9.4294826550        0.3850459217       -0.5043303786
 O       -10.6779221745        0.4126124358       -0.4469684043
 C        -8.5311227913        1.4621491683       -1.2073090890
 C        -8.8805761288        2.8989360849       -0.8595138408
 O        -9.6797997354        3.0056411550        0.0195239234
 C        -8.2447298353        4.0503960021       -1.5661575161
 C        -7.8610469508        5.1256811790       -0.5989640639
 C        -8.4557128051        6.5447173505       -0.9372042963
 O        -9.3120961454        6.6276412271       -1.7719889800
 C        -7.8310985756        7.8070800110       -0.2298949739
 C        -6.4797197606        8.2111885673       -1.0411833842
 O        -5.4808498880        8.5787121585       -0.3871193622
 C        -6.2131353613        7.9285511105       -2.4552750861
 C        -5.4014850814        8.9213273516       -3.2726868213
 C        -4.6148846170        8.0370972352       -4.3985645692
 O        -4.9343204191        6.8939829148       -4.4945247929
 C        -3.6053360513        8.5692326462       -5.4139491032
 C        -4.2616524313        8.6967400578       -6.8316797578
 O        -4.3314618264        7.8539075555       -7.6771379820
 C        -4.7577324157       10.1536379731       -7.1842189270
 C        -2.9543772397        9.8932345749       -4.8155261955
 C        -2.3225678770        7.6330672445       -5.6971209160
 C        -8.8375580116        9.0511895107       -0.3361555527
 C        -7.8359751872        7.5332147596        1.3489565841
 C        -6.9485934328        1.4176863369       -0.8453438632
 C        -8.9355651501        0.9075618392       -2.6547096571
 C        -9.1904968644        0.1404424391        5.1398944711
 C        -8.1765658174       -2.0017690802        4.2971619285
 C       -15.8139623351       -1.3029806806        2.5418042728
 C       -13.7644747052       -2.3430491212        1.5321489089
 C       -15.1422319010        5.1379358695       -1.6155175485
 C       -13.8452340778        6.0199725697        0.5101611027
 H       -16.5275229024        7.0747646777        0.8209588491
 H       -17.8979779769        6.1675209544        1.5600558546
 H       -17.6406080456        6.3038236510       -0.0164189958
 H       -14.0977381456        1.9252118380       -1.0056260989
 H       -15.7793881953        2.6686812293       -1.0658348506
 H       -16.2831270444        0.9161589102        0.3470384822
 H       -15.5118279297        1.8594055832        1.6324286077
 H       -13.7191615186       -2.5032847151        4.3471886062
 H       -13.7804293885       -0.9517286319        5.2941109023
 H       -11.6267080655       -2.1306687555        5.8653781105
 H       -11.4610236913       -0.3532411941        5.3427702628
 H        -7.8177099260       -1.6726714426        1.9664278007
 H        -7.2595548951       -0.0258870281        1.6152377726
 H        -9.6988979662       -1.5541130101        0.2735606129
 H        -8.1312893277       -1.3851583645       -0.4610217755
 H        -9.0425196190        4.4202121282       -2.1605053631
 H        -7.5142097124        3.7284737326       -2.2807911873
 H        -6.7579967378        5.3325492899       -0.4268702866
 H        -8.3394693055        4.7684723508        0.3796592660
 H        -7.1650030259        7.7663296640       -2.9703728364
 H        -5.4806252382        7.0140359848       -2.4958647976
 H        -4.7892140118        9.5473271703       -2.6077588868
 H        -5.9285844559        9.6892118713       -3.9288543729
 H        -5.1348431157       10.5400520179       -6.2277688460
 H        -5.5483443051       10.1449976904       -7.8952848900
 H        -3.9435259029       10.7724289685       -7.5148977137
 H        -2.0538909503       10.1552377633       -5.4205918114
 H        -2.5167672289        9.7401548113       -3.8692292595
 H        -3.6596650966       10.7070509905       -4.9379049703
 H        -1.6692801861        8.1367273962       -6.4317503362
 H        -2.6988094494        6.8179111921       -6.1630910872
 H        -1.9040362906        7.2554890207       -4.8249737437
 H        -9.1890687979        9.1255130158       -1.4278992712
 H        -8.2357301231        9.8176356756        0.1287708396
 H        -9.7709881378        8.9755203340        0.3146373265
 H        -8.8900179161        7.3844196063        1.6953967824
 H        -7.5681319215        8.3811251230        2.0389591429
 H        -7.1931716347        6.6800512834        1.6598419334
 H        -6.4401818786        2.2792809522       -1.3865224324
 H        -6.3084804585        0.5900781177       -1.1042446575
 H        -6.6901725925        1.6614723784        0.1945498296
 H        -9.8756144352        1.4296531136       -2.8932527115
 H        -9.0310835371       -0.2536489348       -2.6187233724
 H        -8.1112116538        0.9022888656       -3.4509293668
 H        -8.1429091624        0.5767918624        5.1523802177
 H        -9.4069903019       -0.0505836050        6.2148848109
 H        -9.9301122000        0.9284655510        4.9067334713
 H        -8.1911299957       -2.7734378902        3.6016107654
 H        -8.4330941364       -2.4235366516        5.3352120240
 H        -7.1853172667       -1.5119767776        4.3339573102
 H       -15.7233386573       -1.9976553379        3.4202486979
 H       -16.2973018486       -1.8465298006        1.7999785179
 H       -16.4741732202       -0.4383471504        2.7994884193
 H       -12.7528768837       -2.2965653564        1.1444106347
 H       -14.4324302226       -2.8560420981        0.8199481266
 H       -13.6723794656       -3.0854698337        2.4328032392
 H       -14.1736083888        5.0096304820       -2.1618890020
 H       -15.2362641316        6.2093913988       -1.8539298727
 H       -16.0093585006        4.6079509313       -1.9579917211
 H       -14.3798141961        6.9562074381        0.7424063456
 H       -12.9941055108        6.1619433850       -0.1850048439
 H       -13.5019250146        5.5295190285        1.4924465534
 Na      -11.7337859095        1.7247791448        0.9799488371
