117

 C       -17.1087365625        6.1302614209        0.6928218336
 C       -16.1950362621        4.9269428720        0.6076818477
 O       -16.5701533576        3.8612910046        1.0309060482
 C       -14.8268752063        5.0073186774        0.0177971104
 C       -14.2422368961        3.5545871078        0.0933533199
 O       -13.2685925591        3.4368161135        0.8064140415
 C       -14.9927296760        2.2640270768       -0.4335858343
 C       -15.3715847144        1.3210450461        0.8006368559
 C       -14.4270143425        0.1573467498        0.8444915623
 O       -13.5564080773        0.1171671513        0.0747745878
 C       -14.3657956277       -0.9063419230        2.0503895055
 C       -13.3540244855       -0.3980430281        3.1291259152
 O       -12.5290699959        0.4594573441        2.9571026115
 C       -13.2597617578       -1.3307021729        4.4528859553
 C       -11.7986925921       -1.2165902630        4.9880030467
 C       -10.6868089871       -1.6094977333        3.9684930993
 O       -10.7107408586       -2.4592394712        3.0948508690
 C        -9.2755663349       -0.8630787193        4.0937075618
 C        -9.2684801267       -0.1722992041        2.6080709519
 O        -9.8575840728        0.8430392457        2.3364726588
 C        -8.2613185185       -0.8228099580        1.5293667842
 C        -8.7502149480       -1.0026734916        0.1581601418
 C        -9.4731614636        0.2490620005       -0.4593305510
 O       -10.6510400634        0.2772854927       -0.6377529945
 C        -8.6444586356        1.2694189934       -1.2170133303
 C        -9.0482707108        2.8379523589       -0.8363116333
 O        -9.7538875737        3.0800491251        0.1553608730
 C        -8.3137979137        4.0359461322       -1.5340655813
 C        -7.8082641220        5.1136702047       -0.5369362362
 C        -8.4500836272        6.5309152976       -0.9678046378
 O        -9.4463183770        6.5026522942       -1.6109000534
 C        -7.8199627296        7.7592454659       -0.2713031007
 C        -6.3678492947        8.2714010758       -0.8822400992
 O        -5.5826515044        8.8965952484       -0.2266217778
 C        -6.2100979511        7.8626020921       -2.4024114894
 C        -5.3682122577        8.8148544294       -3.4774144536
 C        -4.6543247357        7.9273504092       -4.4399282884
 O        -4.8271475689        6.7346513576       -4.3812160226
 C        -3.4493023025        8.4776940669       -5.5167397198
 C        -4.1955014739        8.6874512404       -6.8473762263
 O        -4.4811355254        7.7164112251       -7.4881309003
 C        -4.7516503687       10.0835639734       -7.2812118840
 C        -2.8487820711        9.8714369010       -5.0496666148
 C        -2.3149781177        7.4884371263       -5.6340632924
 C        -8.8572930255        8.9994130934       -0.4968769441
 C        -7.6503911230        7.4969047133        1.2512976767
 C        -7.1357307432        1.2005149019       -0.7456761462
 C        -8.6300481877        1.0780865499       -2.7906289984
 C        -9.2493610095        0.1856669874        5.2218621260
 C        -8.1656529387       -1.9557673692        4.3853894387
 C       -15.7286997814       -1.3166818327        2.5777154034
 C       -13.6319288391       -2.2324946336        1.5324375457
 C       -15.0612994791        5.2468372581       -1.5429105805
 C       -13.8802849091        6.1333017900        0.6191870327
 H       -16.6909580414        7.0889703166        0.5159839925
 H       -17.7022438102        6.1224514785        1.5929444676
 H       -17.9432038879        6.1771783591        0.0012135172
 H       -14.2799486022        1.7624321091       -0.9685819100
 H       -15.8082467581        2.7415283773       -1.1151132715
 H       -16.4100615181        0.9530734629        0.7918290743
 H       -15.2110932849        1.9016174829        1.7171831373
 H       -13.3891100051       -2.4006134642        4.3045475560
 H       -13.9933682042       -0.9884320997        5.2069854848
 H       -11.7363802284       -2.0862581388        5.6886163305
 H       -11.4128668844       -0.2818734362        5.5527918712
 H        -7.8705998961       -1.6971911818        1.9641266525
 H        -7.3781445319       -0.1240053638        1.5208895011
 H        -9.5154418431       -1.8220900080        0.0759381854
 H        -7.9435887878       -1.2171312165       -0.4440315565
 H        -9.0247458794        4.5094734164       -2.2500192742
 H        -7.5294441400        3.5682964110       -2.1031078694
 H        -6.6872257707        5.3811697190       -0.5995884844
 H        -8.0889559947        4.7587890199        0.4690678528
 H        -7.2016357914        7.7314863317       -2.8647880490
 H        -5.5587813409        6.9206846630       -2.4314790836
 H        -4.5402992994        9.4090311595       -2.9317483886
 H        -5.9303680059        9.6882796054       -3.9172330461
 H        -5.2222157987       10.5570809187       -6.4122595842
 H        -5.4574074286       10.0704563296       -8.1782696364
 H        -3.8276539674       10.6197719373       -7.5245614758
 H        -1.8380258044       10.2975401747       -5.5255896595
 H        -2.6402075533        9.7914453285       -4.0306762201
 H        -3.6221752205       10.5489542855       -5.3033555408
 H        -1.5615973535        7.9207772940       -6.2441806815
 H        -2.6614007379        6.5375551238       -6.0846004266
 H        -1.9326320425        7.2580131619       -4.7034841768
 H        -8.6771073183        9.3119208021       -1.4389536558
 H        -8.7031598927        9.7102270737        0.3839276145
 H        -9.8877353409        8.7096576541       -0.5169918223
 H        -8.5888968397        7.2177611674        1.7642067495
 H        -7.3628710173        8.3619533687        1.8921741941
 H        -6.8543109601        6.6493182390        1.4063125847
 H        -6.5910375305        1.9255479519       -1.2901130317
 H        -6.4886441531        0.3100031757       -0.8235735705
 H        -6.9474667530        1.5956665691        0.2587506826
 H        -9.4391296346        1.6962508996       -3.2333656120
 H        -8.8157733373       -0.0926762412       -2.9815324188
 H        -7.5503915304        1.0602777959       -3.2907540171
 H        -8.2013759875        0.5356578839        5.3964828947
 H        -9.5849013446       -0.1027481455        6.2469561770
 H        -9.9052965044        1.0006427440        5.0224106307
 H        -8.1145928092       -2.7446782147        3.6058534610
 H        -8.5505898651       -2.4400501968        5.2445303752
 H        -7.1107394520       -1.4949016079        4.5712613219
 H       -15.7136228346       -1.9032845570        3.5276551841
 H       -16.1734918361       -1.9468925386        1.8043468295
 H       -16.4376499919       -0.4456722031        2.6306388260
 H       -12.5874274433       -2.0246400100        1.3071683018
 H       -14.0589043255       -2.5918188549        0.5929020719
 H       -13.6542848780       -3.0691645901        2.2679898233
 H       -14.1477358606        5.2411965877       -2.0353461598
 H       -15.3477808132        6.3057378454       -1.8043565509
 H       -15.7987388828        4.5598473188       -1.9229099647
 H       -14.3969066034        7.0259887111        0.5678071974
 H       -13.0366131252        6.0592502859       -0.1202614182
 H       -13.5025484889        5.9265383711        1.6514163850
 Na      -11.6817356185        1.7932493993        0.9837812184
