117

 C       -17.2069506518        6.3956953943        0.1592303121
 C       -16.3880533021        5.1434498603        0.6667760354
 O       -16.7501770290        4.2173447588        1.3691717174
 C       -14.9544500578        4.9073147216        0.0737352943
 C       -14.3102898215        3.6140489434        0.2110779659
 O       -13.1194097840        3.4785655431        0.5924642394
 C       -15.1755429585        2.3255773614       -0.2838317025
 C       -15.3118921600        1.2830551916        0.7810994691
 C       -14.1927161695        0.1831161013        0.7181050251
 O       -13.2944912794        0.3436534065       -0.0367234387
 C       -14.0986381968       -0.8130054845        1.8994145133
 C       -13.4019978646       -0.2031369748        3.0809682301
 O       -12.9497343323        0.8997770990        3.1270098968
 C       -13.2689076128       -1.0308627553        4.5147927579
 C       -11.9248977228       -0.6767280098        5.1040920527
 C       -10.7662649409       -1.3351809608        4.2348135999
 O       -10.9966312511       -2.1980023148        3.4596820066
 C        -9.3072967873       -0.6465085970        4.0298144507
 C        -9.2094394262       -0.2228130006        2.5467005343
 O        -9.6139319258        0.8602085399        2.1886536358
 C        -8.5076271148       -1.1559221126        1.6242938103
 C        -9.1541627347       -1.2111749042        0.2050521832
 C        -9.4570836851        0.1471046909       -0.6660189168
 O       -10.5713330202        0.3739104719       -1.1358323991
 C        -8.3349126172        1.3472591353       -1.0148942792
 C        -8.9485397707        2.7386815796       -0.6925684995
 O        -9.9628271055        2.8053628151       -0.0072899071
 C        -8.4075709060        3.9437922565       -1.3806887624
 C        -7.7253966542        5.0381002267       -0.5004735646
 C        -8.4206033136        6.4198049092       -0.7727983579
 O        -9.4046878455        6.4052649770       -1.3959508326
 C        -7.8160360340        7.7663935071       -0.3760827766
 C        -6.4858051589        8.2998924251       -1.2043333292
 O        -5.8980449460        9.3289429336       -0.9633487307
 C        -6.1274923361        7.7055732907       -2.5373091016
 C        -4.9369957266        8.4699368551       -3.1692219679
 C        -4.3889497822        7.6054789832       -4.1950924815
 O        -4.6522722724        6.4256797715       -4.0941792560
 C        -3.4110732465        8.2556261886       -5.4896198037
 C        -4.3548950032        8.2287395057       -6.8345592137
 O        -4.8855575702        7.1750880134       -7.0766214994
 C        -4.5358514226        9.6781149492       -7.4708355772
 C        -2.9448425355        9.5915800032       -4.9377541251
 C        -2.2430489559        7.3460436278       -5.9008730511
 C        -8.8568279857        8.8961683574       -0.4182139639
 C        -7.4009836853        7.6412268583        1.1151295693
 C        -6.9583545124        1.2470412568       -0.4538534159
 C        -8.4571799228        1.1056251371       -2.5916405796
 C        -9.2641245355        0.7104529681        4.7250225078
 C        -8.1795557792       -1.5974498288        4.5094761206
 C       -15.5049860870       -1.1236527352        2.4415635765
 C       -13.6557046240       -2.2730766323        1.4831010325
 C       -14.7806402161        5.1587267447       -1.5366837678
 C       -14.0725706550        6.0099128357        0.9329490700
 H       -16.8799113334        6.8591649181       -0.7913213644
 H       -17.4774974888        7.2341418629        0.7950365595
 H       -18.2256133473        6.0026968681       -0.0500649348
 H       -14.5237010301        1.8137937963       -1.0407224323
 H       -16.1350297357        2.8264221405       -0.7193188144
 H       -16.3764509181        0.9888738744        0.8431767133
 H       -15.0385848195        1.7777104496        1.6982565146
 H       -13.2789909407       -2.0856656206        4.3421324115
 H       -14.1132600485       -0.7400397256        5.2581935455
 H       -11.6559320060       -1.0326416762        6.1134290760
 H       -11.8226269654        0.4976169336        5.0459118800
 H        -8.3234843313       -2.0885887998        2.1033242889
 H        -7.4161679562       -0.7298316953        1.5845199392
 H       -10.1584156993       -1.7061964662        0.2162460812
 H        -8.5565738518       -1.7628471791       -0.3928228069
 H        -9.3083527424        4.4083204317       -1.8050363605
 H        -7.7320050649        3.6173887282       -2.1683756776
 H        -6.7305519555        5.0760500394       -0.9421798541
 H        -7.8061254818        4.8984267715        0.5833401341
 H        -6.9273131661        7.7370543859       -3.2403099611
 H        -5.7789955085        6.6518344050       -2.3557707789
 H        -4.2191300882        8.8583029967       -2.4722956970
 H        -5.2172604023        9.5091622801       -3.3975354304
 H        -5.3472086807       10.0265204691       -6.8621570075
 H        -4.8528492605        9.6194573926       -8.5014017864
 H        -3.6499363262       10.2358060150       -7.4424785709
 H        -2.6634489845       10.2645979181       -5.8420007705
 H        -2.2875728301        9.3659429825       -4.1439318083
 H        -3.7812163483       10.2036039978       -4.6579126597
 H        -1.5314596770        7.9573902154       -6.5287833537
 H        -2.5007968714        6.3456495363       -6.3244476366
 H        -1.6016883777        7.2422074028       -5.0707585278
 H        -8.4022199652        9.8688521531       -0.4980805037
 H        -9.5814738826        8.5736754595        0.4677369955
 H        -9.4664653821        8.7925228484       -1.3647432813
 H        -8.2016909508        7.3647744066        1.7310969257
 H        -7.0393466885        8.5305470309        1.5224959852
 H        -6.6681745422        6.8318256986        1.2086372738
 H        -6.2663113820        2.1016745630       -0.5426850125
 H        -6.3729794201        0.3921876704       -0.8110201932
 H        -6.8696829909        1.1684489175        0.6414517988
 H        -9.4153754142        1.0840160481       -2.9437378508
 H        -8.2473607293        0.0058655867       -2.7801499826
 H        -7.7247004473        1.7320741690       -3.1570786044
 H        -8.3120209999        1.2402312656        4.5315254604
 H        -9.4551469640        0.7391335975        5.8071284356
 H       -10.0925760129        1.1980037053        4.2740630112
 H        -8.4260625401       -2.5913965114        4.3899736035
 H        -8.0911075007       -1.4659508348        5.5746063005
 H        -7.2557177902       -1.4024084220        3.9213860147
 H       -15.6009345958       -2.0630221414        2.9875311514
 H       -16.1560525701       -1.1277552381        1.6622375220
 H       -15.8780941758       -0.2748711402        2.9979973409
 H       -12.6691243257       -2.4035927667        1.0986852458
 H       -14.1522282951       -2.5648938293        0.5778772642
 H       -13.9534084816       -2.9970570179        2.3299691456
 H       -13.7158775811        5.4068489500       -1.6936935648
 H       -15.2843425498        6.0997274883       -1.9372239674
 H       -14.9733038256        4.2804030165       -2.1411249900
 H       -14.4486546067        6.9081756815        0.6049623060
 H       -12.9872882172        5.7405318914        0.8363306170
 H       -14.2234507489        5.9409219321        2.0671583544
 Na      -11.6691911947        1.4263560303        0.9040000634
