117

 C       -17.1487000865        6.2499140510       -0.2573126044
 C       -16.3312875390        5.1873298219        0.5135035374
 O       -16.8356132720        4.5313594353        1.4393750035
 C       -14.9026797519        5.0680540307        0.1143924519
 C       -14.3761043450        3.6453849200        0.2137322841
 O       -13.2875821790        3.4430385928        0.7692592528
 C       -15.2926535924        2.4693671170       -0.3393102025
 C       -15.5237218926        1.2157890336        0.6948951249
 C       -14.4588423639        0.2001461305        0.6983767492
 O       -13.6181160411        0.0512406129       -0.1988992445
 C       -14.2677921274       -0.7735563828        2.0155853637
 C       -13.3652734295        0.0936149730        3.0439797374
 O       -12.6572664739        1.0477225947        2.8129851028
 C       -13.3695616736       -0.5555777147        4.4616223959
 C       -11.8995168929       -0.2467401705        5.0774419260
 C       -10.7034107345       -0.9705271045        4.2762727284
 O       -10.7886303855       -2.0686989028        3.8245004601
 C        -9.3540098493       -0.2567006224        4.0456365279
 C        -9.2599894146       -0.1319672690        2.3394379695
 O        -9.5984265120        0.8465363362        1.7495941528
 C        -8.9254106841       -1.3884567989        1.5723197363
 C        -9.1438904826       -1.2169708048        0.0228310388
 C        -9.4408383893        0.1640881472       -0.5351888627
 O       -10.6457896596        0.4015461091       -0.7800472506
 C        -8.2874614937        1.1706426488       -1.0331961827
 C        -8.7698849513        2.6997733275       -0.8572318772
 O        -9.6986511070        3.0076382726       -0.1856321400
 C        -8.0289188446        3.9938980303       -1.3909887254
 C        -7.9664635361        5.0863769644       -0.2547830299
 C        -8.5154230281        6.4535160848       -0.8630325368
 O        -9.3196049249        6.5225211729       -1.7486158799
 C        -7.8236161180        7.8860441859       -0.2062798346
 C        -6.8311112312        8.4799516578       -1.3810979269
 O        -6.4529846381        9.6003644119       -1.1839489686
 C        -6.1771480622        7.3614499321       -2.4681817676
 C        -4.8565893390        7.6823850885       -3.0324927799
 C        -4.2199904399        6.9822763087       -4.3095484620
 O        -3.9626018553        5.8198417114       -4.3380945372
 C        -3.4222223939        7.8623227171       -5.4609547932
 C        -4.4389333596        7.8215851918       -6.6071729213
 O        -5.3349150972        7.0122955822       -6.6382118842
 C        -4.4762244261        9.0577383281       -7.5771871343
 C        -3.0843508519        9.2732993683       -4.9335005053
 C        -2.1273293029        7.1184567762       -5.8697983077
 C        -8.9708142154        8.8930181782       -0.1428611536
 C        -7.0247817087        7.6946683523        1.0268612170
 C        -7.0930296523        1.0751881960        0.0338517842
 C        -7.8298780411        1.0094376905       -2.5135731888
 C        -9.1980864019        1.1674548690        4.6170439655
 C        -8.3521583154       -1.2779019224        4.6058390410
 C       -15.7861569026       -1.2895793159        2.5203232923
 C       -13.3486303581       -1.9661917672        1.6992176459
 C       -14.6344743656        5.5720477288       -1.4222975802
 C       -13.9393175553        5.9939585363        1.0830086275
 H       -17.1461178708        5.9873086921       -1.3363465150
 H       -16.6471311555        7.1987557620       -0.3085482077
 H       -18.1206478023        6.4892304591        0.1638271327
 H       -14.6746506105        2.1333037518       -1.1629778326
 H       -16.2204514847        2.9060267424       -0.7125514894
 H       -16.3868052146        0.8485273284        0.1025360548
 H       -15.8943367146        1.4072501099        1.7146546418
 H       -13.5982729324       -1.5872350444        4.5669498099
 H       -13.9682130031       -0.0124333953        5.1856711885
 H       -11.9617843268       -0.5336869574        6.0575781094
 H       -11.7802827020        0.7934673900        4.9785077740
 H        -9.5010645986       -2.2236432181        1.9658336680
 H        -7.9268431906       -1.7600457913        1.7980197073
 H        -9.9366588370       -1.9310230839       -0.3899471459
 H        -8.1633490597       -1.5566545746       -0.4060585379
 H        -8.8047124705        4.3021352521       -2.1463468562
 H        -7.0089578888        3.7479627987       -1.7786283270
 H        -7.0101874525        5.0767853902        0.1304443457
 H        -8.8230539036        4.8784802061        0.4139271011
 H        -6.8827535629        7.2489058176       -3.3390587325
 H        -6.1658967186        6.4259056006       -1.9621791015
 H        -4.1963009669        7.9034361020       -2.2722484564
 H        -4.8223497607        8.7730396631       -3.2349964686
 H        -4.6955086175        9.9484479909       -6.9050771853
 H        -5.3518697006        8.9117832936       -8.2206091242
 H        -3.5689210584        9.0752217448       -8.2011409123
 H        -2.3867560007        9.7075060874       -5.7365027581
 H        -2.9138114374        9.1215590461       -3.9054332803
 H        -3.9839561314        9.9001921126       -4.8455616938
 H        -1.6669084266        7.4139332867       -6.8928876236
 H        -2.4336095063        6.0293739302       -5.9296257297
 H        -1.2921671840        7.3110451944       -5.2210596729
 H        -8.9588167728        9.2076815814        0.8553621955
 H        -9.9239975507        8.4129420293       -0.4047215329
 H        -8.8352730268        9.7325506211       -0.7469204857
 H        -7.4930016480        7.2726236703        1.9403708111
 H        -6.6073493029        8.6993345062        1.2524367107
 H        -6.1267400629        7.0386917506        0.8667811187
 H        -6.0837479096        1.4440267250       -0.2006355245
 H        -6.8297131899        0.0884388237        0.3042727074
 H        -7.2399649370        1.5279806933        0.9998520596
 H        -8.5963618153        1.2598463483       -3.0910173075
 H        -7.5190451504        0.1558700028       -3.0436160241
 H        -7.2606371850        1.9116416888       -2.4668143159
 H        -8.1595275148        1.5426545542        4.5245204448
 H        -9.4476668439        1.0942770470        5.6769429394
 H        -9.8277483513        1.8943099149        4.0956732408
 H        -8.1457555761       -2.1559153963        4.0788120067
 H        -8.6400318328       -1.5904979048        5.6768112644
 H        -7.4227399921       -0.6451065344        4.6290830344
 H       -15.6809472220       -1.9388025187        3.4528269982
 H       -16.2513420398       -1.8986541032        1.8094972678
 H       -16.5985444245       -0.5141752595        2.7519489558
 H       -12.7537629212       -1.8370593891        0.8685117544
 H       -13.9342330848       -2.7884394500        1.3681412794
 H       -12.9057858199       -2.3777393540        2.6678761176
 H       -13.6743266204        5.1013785434       -1.7172929699
 H       -14.6147017610        6.6466010781       -1.2927919735
 H       -15.2319265559        5.3790630222       -2.2836746218
 H       -14.2603112742        6.9853616437        1.0151164802
 H       -12.9466577978        5.8001088199        0.7963148092
 H       -13.9873439771        5.6536096237        2.1266249455
 Na      -11.6232067243        1.6297882136        0.7944113476
