117

 C       -17.2268927465        6.2066226282       -0.3335165844
 C       -16.3110724883        5.2963374460        0.4454973926
 O       -16.7016779692        4.5916304947        1.3157805937
 C       -14.7826844521        5.2117955685        0.1255460263
 C       -14.3997726335        3.6614362902        0.2724216781
 O       -13.3848950873        3.3587686740        0.8748949242
 C       -15.2558361198        2.3714253266       -0.3576702607
 C       -15.6424609045        1.3093925531        0.6304809360
 C       -14.4914674485        0.2354595358        0.6503835408
 O       -13.8008357503        0.1592246898       -0.2697905309
 C       -14.3180745410       -0.7711179435        2.0513488080
 C       -13.4138269664        0.1480351689        2.9747794310
 O       -12.6251551848        0.9945901190        2.6469491159
 C       -13.2619420722       -0.2783977022        4.4768779853
 C       -11.8450307377       -0.1468290105        4.9750641714
 C       -10.8313770783       -0.9154784255        4.2191507567
 O       -10.9077817430       -2.1112023604        3.9234381349
 C        -9.3737513359       -0.1656019868        3.9330335435
 C        -9.4317702801       -0.1260237795        2.4033344091
 O        -9.5096947261        1.0170874252        1.9277568616
 C        -9.0065883421       -1.3654704375        1.5327906076
 C        -8.9424663325       -1.2217142314       -0.0165136658
 C        -9.3542572286        0.2090685816       -0.5710624523
 O       -10.5530941872        0.3803838541       -0.7187565282
 C        -8.2299908966        1.3302089924       -0.9032542459
 C        -8.7141516056        2.7380066932       -0.7052460239
 O        -9.8355764712        2.9470636822       -0.2015244607
 C        -7.8840142015        3.9377370944       -1.3340484668
 C        -8.0625570976        5.1187304674       -0.2761095913
 C        -8.4212122500        6.4712963483       -0.9336539628
 O        -9.2009200090        6.5083343632       -1.8270215598
 C        -7.7841919414        7.8271109209       -0.3454272999
 C        -6.8029865756        8.3023541163       -1.4604714055
 O        -6.4917835893        9.4526817216       -1.6222769523
 C        -6.2060653224        7.2849855105       -2.4596936210
 C        -4.7976537633        7.7136192217       -2.9517384008
 C        -4.0065081339        6.8529551627       -4.0947856107
 O        -4.0527590445        5.6605963982       -4.0236878141
 C        -3.4339499101        7.6312760789       -5.3270311824
 C        -4.6434271035        7.8187876043       -6.5454969680
 O        -5.5298039790        6.9960854580       -6.6477392734
 C        -4.4489111766        8.8266176334       -7.6898194361
 C        -3.1101788620        9.1536545666       -4.9203609729
 C        -2.1038210149        7.0537247301       -5.8859795231
 C        -8.9476999733        8.8419911772       -0.0131000970
 C        -7.0553454408        7.5674614036        0.9373652548
 C        -7.2007535460        1.0094403986        0.1918701848
 C        -7.7803854819        1.0358926021       -2.3422624370
 C        -9.2585634016        1.3072937840        4.4399689379
 C        -8.2754008496       -1.1151300907        4.4913026618
 C       -15.5217148394       -1.3233334944        2.6425840068
 C       -13.3876883957       -1.9779538032        1.8494540925
 C       -14.5608065365        5.6530648678       -1.3627030966
 C       -13.8932206471        5.8957618861        1.1284397870
 H       -17.7018067304        5.6940985908       -1.1757817544
 H       -16.7791095631        7.0659677582       -0.8786039255
 H       -17.9340768668        6.6249023924        0.4158145012
 H       -14.4951254252        2.1112043494       -1.0773208321
 H       -16.2335943422        2.7559043589       -0.9403519688
 H       -16.6421373805        0.9940004107        0.2392581076
 H       -15.8695968317        1.7975948431        1.5769483741
 H       -13.3946226437       -1.2593910366        4.8176975283
 H       -13.8843109302        0.3275080332        5.1533229699
 H       -11.9541873104       -0.4832940544        5.9772540852
 H       -11.4437570441        0.8485276343        4.8224924235
 H        -9.6776014775       -2.1524036060        1.7008301025
 H        -8.0546908035       -1.8534964355        1.9795622391
 H        -9.6748842261       -1.9719960521       -0.4938260162
 H        -8.0090618607       -1.5428524879       -0.2815453305
 H        -8.3568738971        4.1089407642       -2.3684762265
 H        -6.8871520915        3.4593520015       -1.3038646153
 H        -7.1599471887        5.1236359787        0.2940349312
 H        -8.9626198328        4.8375569052        0.2063160327
 H        -6.8304699011        7.1440945225       -3.2661201024
 H        -6.1659586302        6.2664675163       -1.9999818412
 H        -4.2197120210        7.6924006617       -2.0415560424
 H        -4.6264588599        8.7652689596       -2.9210822500
 H        -4.4926204436        9.8285937928       -7.2820078699
 H        -5.3823861765        8.6586475675       -8.3032650532
 H        -3.5966554947        8.5131135257       -8.2587822060
 H        -2.8900496496        9.6680659704       -5.9374072002
 H        -2.5457519684        9.2293003945       -4.0388675516
 H        -4.0268255592        9.5191428493       -4.4721730563
 H        -1.7041777718        7.5439000346       -6.8092080562
 H        -2.1966103348        5.8941499775       -6.1214803886
 H        -1.2948428379        7.2727274182       -5.1130915391
 H        -9.0684011160        8.6231667820        1.0218334449
 H        -9.9543291097        8.7461110424       -0.5432759028
 H        -8.5531483210        9.8343177768       -0.2019244605
 H        -7.5740500194        7.0047981381        1.6235290403
 H        -6.7778471415        8.4939098889        1.3184961874
 H        -6.0943492013        7.0410299642        0.8026319738
 H        -6.1711673318        1.3011426279        0.1520987422
 H        -7.0009498502       -0.0495349237        0.4363209641
 H        -7.4706158119        1.4016505647        1.1706587626
 H        -8.6471530447        1.2330216151       -3.0086661202
 H        -7.6090559523        0.0464443346       -2.5962041286
 H        -7.0847542181        1.6694897717       -2.6309633152
 H        -8.2535802279        1.6942038271        4.3185309015
 H        -9.5272043089        1.2466970588        5.4865626692
 H        -9.8125042123        1.9811000332        3.8889215326
 H        -8.0712782825       -2.0460932255        3.9574856022
 H        -8.5181677884       -1.3730124164        5.4620739351
 H        -7.3250678935       -0.5549516301        4.5620174272
 H       -15.3129717580       -1.8946908735        3.5558093479
 H       -15.9880045653       -2.0210760159        1.9513626007
 H       -16.3210092843       -0.6207962752        2.8716871000
 H       -12.5904753182       -1.8335892961        1.1390241529
 H       -13.8993288549       -2.8169657411        1.4321276468
 H       -13.1203227940       -2.3321826116        2.8541918383
 H       -13.6548163774        5.2539396547       -1.6752030269
 H       -14.7515992029        6.7509452143       -1.4178837045
 H       -15.2085176605        5.2583809710       -2.1022756166
 H       -14.1969749391        6.8939627473        1.1355885272
 H       -12.8059053634        5.8342019755        0.8915472735
 H       -14.0517883703        5.4548828855        2.1021422058
 Na      -11.6952257237        1.8822797187        0.6665191761
