117

 C        -7.2321697676       -5.7063914499        4.6987355328
 C        -6.9763373759       -5.4672408163        3.1802659908
 O        -6.1786301451       -6.1284343571        2.5834943733
 C        -7.6118227171       -4.0689987860        2.5887721837
 C        -9.1443525967       -4.2442286437        2.4533960970
 O        -9.8080491306       -5.2312164491        2.8678991019
 C        -9.8689750512       -3.0689426076        1.7586107444
 C       -11.2787304823       -3.2374564867        1.3457447078
 C       -11.9298836339       -1.7797534413        1.3847003120
 O       -12.2119687160       -1.2654739647        0.2880017424
 C       -12.3044537655       -1.1518035585        2.7871299028
 C       -11.2496551192       -0.0602288027        3.0159958339
 O       -10.5398357352       -0.0720101948        3.9937800091
 C       -11.1603069737        1.0487272008        1.9591894784
 C        -9.7048741729        1.4412105517        1.5992309134
 C        -9.6694733596        2.4630945395        0.4403445343
 O        -9.5119990980        3.6462759359        0.7118208543
 C       -10.0279239299        2.0018388829       -1.0513612676
 C       -11.6237001392        2.2956161287       -1.3597843468
 O       -12.4400098841        2.4148867721       -0.4597790627
 C       -12.1861930580        2.4651052700       -2.9285314973
 C       -12.5776864493        3.9133290884       -3.3428070754
 C       -11.9555478921        5.0020794662       -2.5879239556
 O       -11.0167659195        4.6881977397       -1.8690643331
 C       -12.5898854071        6.4639754269       -2.3910645754
 C       -11.4766117074        7.5282984455       -2.8015772690
 O       -10.4275604099        7.4669065569       -2.1752477220
 C       -11.7686094947        8.7725581356       -3.6659292257
 C       -10.4737100458        9.7381918193       -3.9122909973
 C       -10.4495421666       10.7354326708       -2.7582245806
 O       -11.5341281638       10.9851820164       -2.2145848302
 C        -9.0852002088       11.4945743952       -2.3544239241
 C        -8.4155890390       10.5053238089       -1.3882904728
 O        -7.4792448957        9.8083984354       -1.7969983251
 C        -8.6456131985       10.6129570575        0.0485756628
 C        -7.6611511074        9.7625177668        0.9085439386
 C        -7.9429438122        8.2146534026        0.8642367323
 O        -9.0581476569        7.7528013761        0.9386016720
 C        -6.6456777359        7.3390147279        0.6966783997
 C        -6.7192330419        6.7934546776       -0.9526621252
 O        -7.6698699451        6.1997917848       -1.3540389224
 C        -5.5068377549        7.2025506149       -1.8024214063
 C        -5.2360840678        7.8509816904        1.1600251135
 C        -6.8277537679        5.9276620083        1.4072986637
 C        -8.3132101981       11.7511029426       -3.6125035984
 C        -9.5827986510       12.8140693296       -1.6890851613
 C       -13.7979773718        6.5186313650       -3.4100660730
 C       -13.0952384692        6.9000800670       -0.9961828277
 C        -8.9630409375        2.5987435874       -1.9951790936
 C        -9.9202569665        0.4069808753       -1.2339838954
 C       -13.8173415279       -0.6740007715        2.5474209563
 C       -12.2633318819       -2.1531590965        3.9692537245
 C        -7.2129599955       -2.8335356004        3.4771985750
 C        -6.9936186501       -3.8164648831        1.1579356241
 H        -7.7741416421       -4.9068486280        5.0902723934
 H        -6.2690375194       -5.7640188433        5.2156865564
 H        -7.6684757176       -6.6315756630        4.8178035848
 H        -9.2206658059       -2.5661547588        0.9150996404
 H        -9.7688131330       -2.3109003213        2.4701897440
 H       -11.8744748167       -3.7829527605        2.0653885988
 H       -11.3868659031       -3.6841560552        0.3969328079
 H       -11.7336215564        1.8876626693        2.4848189836
 H       -11.8500946375        0.8164608492        1.1030262142
 H        -9.2025181012        0.4934204767        1.4856906483
 H        -9.1729728074        1.9618916493        2.3462881335
 H       -13.0273047805        1.7163310202       -3.0153207955
 H       -11.3447728929        2.1783521182       -3.5445402408
 H       -13.6427373701        4.0519820199       -3.2421872240
 H       -12.5641262997        4.0285206745       -4.4099562685
 H       -12.5849575978        9.4738056875       -3.1926194136
 H       -12.3323060255        8.5158419015       -4.6346572837
 H       -10.6895396536       10.3579149449       -4.8726965352
 H        -9.5064593115        9.3525864119       -4.1332235844
 H        -9.6891950834       10.3664182316        0.3354761977
 H        -8.5070308882       11.6648293823        0.2747317975
 H        -7.6491585674       10.0158320282        1.9493912947
 H        -6.5781921967        9.8368844016        0.5229608646
 H        -5.5583015401        8.2914198676       -1.9860257947
 H        -5.6278030798        6.6977984482       -2.8021275101
 H        -4.5688237731        6.8782904417       -1.4848279040
 H        -5.3763998952        8.1128411948        2.2131349752
 H        -4.7963747979        8.7096295638        0.6622559895
 H        -4.4632046762        7.0451084033        1.1420021467
 H        -7.1579468710        6.0836942471        2.4410255583
 H        -5.9047233341        5.5014187896        1.2563261105
 H        -7.6694419793        5.2731438896        1.0131891625
 H        -7.3454694214       11.9974522395       -3.1638251943
 H        -8.6733334410       12.5969606030       -4.1872656629
 H        -8.2663944048       10.9625659387       -4.2894900183
 H        -8.6930784854       13.3952359084       -1.5421066184
 H       -10.0747332330       12.6353984630       -0.7308558555
 H       -10.2769554611       13.2948593080       -2.3916499323
 H       -14.5978982992        5.8950235000       -3.0200542827
 H       -13.4758264568        6.1153304249       -4.3757594066
 H       -14.3657332670        7.5305417464       -3.4833264222
 H       -14.0150191051        6.3833062666       -0.5351438472
 H       -13.4332052748        7.9516313657       -1.0244910228
 H       -12.1419151477        6.7411306058       -0.3681088929
 H        -9.0941591877        2.5041493196       -3.0582547768
 H        -7.9423940408        2.0445406278       -1.8026425157
 H        -8.7992944588        3.6597025999       -1.8184771177
 H       -10.5651247492       -0.1229758947       -0.5604834114
 H        -8.8711143076        0.1817248983       -1.0050687379
 H       -10.1820205667        0.0140845307       -2.1784485102
 H       -14.4583367863       -1.5345679153        2.7306332013
 H       -13.9223862547       -0.3032468989        1.4967518928
 H       -14.0357329982        0.0360107426        3.3100098105
 H       -13.0089865697       -2.9204610525        3.8573324542
 H       -12.4016937510       -1.6443045609        4.8908640615
 H       -11.3189037288       -2.6382978136        4.0764838384
 H        -7.5664832136       -2.7459745495        4.5517583281
 H        -7.4550535797       -1.9127672599        2.9063968667
 H        -6.1016618545       -2.9980724662        3.6175220096
 H        -5.9265879669       -3.4853144855        1.2789290003
 H        -7.5701276738       -3.0204755886        0.6344160278
 H        -7.0055063979       -4.7109800717        0.4811767752
 Na       -9.6784014700        5.7591932781       -0.2795717382
