117

 C       -17.3284162258        6.1985130334       -0.3196563408
 C       -16.3439321225        5.3570699319        0.4406325033
 O       -16.7298453102        4.6103757338        1.3199648118
 C       -14.6862866412        5.1446034056        0.0521514439
 C       -14.3539869804        3.5460335469        0.2224155751
 O       -13.4612553327        3.2901551436        0.9641859624
 C       -15.2574294489        2.4731704053       -0.3694992070
 C       -15.6373200570        1.3985611413        0.6906162960
 C       -14.5134399916        0.2032584573        0.7676331302
 O       -13.8110132971        0.1008193126       -0.2484146512
 C       -14.3165601544       -0.6855001233        2.0279670703
 C       -13.3364028412        0.1591599163        3.0117407167
 O       -12.6139821180        0.9997106100        2.4123334033
 C       -13.3268404339       -0.1199024127        4.5171263498
 C       -11.8379555587        0.0198945530        5.0464150072
 C       -10.7940837063       -0.8578511364        4.2435775902
 O       -11.0845778703       -1.9987069047        4.0171114366
 C        -9.3899135867       -0.1803317089        3.8904265631
 C        -9.2718416480       -0.0103759051        2.2990381591
 O        -9.5484837366        1.0839913554        1.8212418075
 C        -9.0901503180       -1.2742915626        1.4939615194
 C        -8.9254776862       -1.2160712102       -0.0183859414
 C        -9.3808695389        0.1882365688       -0.4619083895
 O       -10.4893588187        0.4339887433       -0.7927685516
 C        -8.2775921939        1.1949692888       -0.6767214980
 C        -8.8549059614        2.6681680505       -0.6611486141
 O        -9.9109920636        3.0638407277       -0.2180621725
 C        -7.8979749514        3.8525655135       -1.0831830886
 C        -8.1026510908        5.1341851709       -0.2139707756
 C        -8.3918973234        6.4438689967       -0.9975916718
 O        -9.1548273932        6.5053041991       -1.9990655864
 C        -7.7300214625        7.6819291820       -0.4207354831
 C        -6.7571926676        8.2016459087       -1.6846524615
 O        -6.6019122727        9.3904798953       -1.9030281296
 C        -6.0857099712        7.1335584520       -2.5039810809
 C        -4.6340295689        7.6209962623       -2.8230672928
 C        -4.1523606781        6.7833838566       -3.9225264999
 O        -4.0748040659        5.5732767268       -3.7719380652
 C        -3.6743496903        7.6242439041       -5.3190982756
 C        -4.6392763431        7.6210756644       -6.5536754474
 O        -5.6263860146        6.9328047776       -6.4263014518
 C        -4.3230980026        8.6117928525       -7.6888993858
 C        -3.1150513846        9.1543238085       -4.9720188210
 C        -2.3448937281        6.9605332859       -5.8538300251
 C        -8.9048458768        8.7855763255       -0.0795370942
 C        -6.8909980238        7.4243998069        0.8971446601
 C        -6.9793028694        1.1511520247        0.2261747066
 C        -7.6813323658        0.9752170173       -2.1367589782
 C        -9.3566846909        1.1890953175        4.4238244325
 C        -8.1933568964       -0.9327721908        4.4043973920
 C       -15.5085880970       -1.1416278181        2.7477924218
 C       -13.3203548740       -1.9066214843        1.6493603294
 C       -14.3594834910        5.6730254052       -1.3335795313
 C       -13.9130065778        5.8942569287        1.0978272218
 H       -17.9816085910        5.5393663848       -0.9009946934
 H       -16.8859752235        6.7989343411       -1.1534198024
 H       -17.8567227718        6.8640965048        0.3805623934
 H       -14.6346248650        2.1566557257       -1.2920657466
 H       -16.1369325884        3.0202719699       -0.7207350731
 H       -16.6554302937        1.1006461197        0.4680884888
 H       -15.7303231225        1.9969000494        1.6102989076
 H       -13.5205783953       -1.1718431483        4.9039390281
 H       -14.0669703038        0.5444198214        4.9754504272
 H       -11.8569855730       -0.2886026571        6.1823174116
 H       -11.4886986271        1.0389354361        4.8060434474
 H        -9.9800205844       -1.9330266741        1.7101568945
 H        -8.2721914025       -1.9013608223        1.9241930477
 H        -9.4658910662       -1.9557011216       -0.4714582315
 H        -7.8523424021       -1.3771584242       -0.1707961294
 H        -8.2113088840        4.0890622063       -2.0971954185
 H        -6.9289402322        3.4036981359       -0.9885725271
 H        -7.0583683485        5.3584664356        0.1340103264
 H        -8.8932411312        4.9306738701        0.4945345715
 H        -6.5298790022        6.9722314006       -3.4931802902
 H        -6.2035598143        6.0970617435       -2.1147066060
 H        -3.9137365052        7.7288971638       -1.9526851066
 H        -4.5513925482        8.6509730128       -3.0206061710
 H        -4.2401750679        9.5430899844       -7.2135506276
 H        -5.1715315376        8.6313318078       -8.3365432478
 H        -3.4459227590        8.2512472698       -8.2181788733
 H        -2.7855007720        9.5263496679       -5.8762455123
 H        -2.3481892046        9.0296686297       -4.1523543266
 H        -3.8056754565        9.7091999640       -4.3392080736
 H        -1.9186584901        7.4630523543       -6.7312242282
 H        -2.5258908422        5.9747225018       -6.1660099658
 H        -1.5244786394        7.0018721394       -5.0331538775
 H        -9.6251022560        8.2482610385        0.6693022535
 H        -9.4503994709        9.2248874185       -0.9165503411
 H        -8.2591068025        9.6503183889        0.3073921809
 H        -7.5341635716        6.9024973147        1.5609883744
 H        -6.5899732660        8.3766029175        1.2925582356
 H        -5.9993299158        6.9089504767        0.8375269559
 H        -6.3380892280        1.9443161907       -0.0914466844
 H        -6.2343613340        0.3631806903        0.3632646919
 H        -7.1005049572        1.4336179539        1.2704414232
 H        -8.4282526255        1.0749231012       -2.9903744239
 H        -7.4760061606       -0.1270374841       -2.2615787983
 H        -6.7510245217        1.5667675372       -2.4427448582
 H        -8.4864065482        1.5910530159        3.9764355162
 H        -9.3366469849        1.1791886632        5.4911403883
 H       -10.0493533114        1.8720222397        3.9394316561
 H        -8.2359131356       -2.0040790042        4.1072895537
 H        -8.2375462084       -0.9191299273        5.5151407005
 H        -7.2531815708       -0.5113969260        4.2107796838
 H       -15.2885846355       -1.6758537333        3.6123683440
 H       -16.1571140839       -1.8252821412        2.1195732122
 H       -16.1604113774       -0.3888119549        3.0698225560
 H       -12.3366651175       -1.6532488051        1.1270721801
 H       -13.7599223499       -2.6633629096        0.9642643821
 H       -13.1716389150       -2.4192663458        2.5351216161
 H       -13.3558042470        5.4711111768       -1.6271266133
 H       -14.7725497440        6.6393654455       -1.4078485685
 H       -14.9429605629        5.1169110956       -2.0733794860
 H       -14.3268897009        6.9896545681        0.9759649679
 H       -12.8009533155        5.9637547188        0.9637800447
 H       -14.1733397262        5.5173685944        2.0701536015
 Na      -11.7704179106        2.0220527216        0.5278488396
