117

 C       -17.2221505059        6.1995595523       -0.4565289394
 C       -16.3937048735        5.2047028526        0.3168106016
 O       -16.8863973977        4.6925911715        1.2501739410
 C       -14.7583977713        5.2172893672        0.1417690321
 C       -14.3495012342        3.7501298705        0.4587244032
 O       -13.3620435654        3.3145004442        0.9713892899
 C       -15.3161760355        2.6621763670       -0.1584853230
 C       -15.5522285499        1.4968180507        0.7215672171
 C       -14.3187021106        0.5702775224        0.6353058358
 O       -13.7968610801        0.5774239961       -0.4187215250
 C       -14.0803730421       -0.4978017694        1.8826028129
 C       -13.0513572835        0.1569650250        2.9046338172
 O       -12.1509272772        0.9518720288        2.5769170144
 C       -13.2708862110        0.0244504087        4.3873256040
 C       -11.9912359693        0.4577843582        5.1740465837
 C       -10.8382930293       -0.4407047179        4.5058634867
 O       -11.1415902823       -1.5365193660        4.0671393838
 C        -9.3927654326        0.0721159310        4.0259345238
 C        -9.5423005204        0.0202762736        2.4238473943
 O        -9.7675757797        1.0507569001        1.7824172590
 C        -9.5772060985       -1.3346768833        1.7061023658
 C        -8.9062261769       -1.1977193218        0.3195895454
 C        -9.2137059562        0.1886198522       -0.4798785208
 O       -10.3113019873        0.3055074646       -0.9558707417
 C        -8.1478303786        1.2926220897       -0.7262025309
 C        -8.8183836112        2.6823371070       -0.5551683888
 O       -10.0088009334        2.8743364748       -0.3110242853
 C        -7.9276972293        3.8485879101       -1.0964488876
 C        -8.1760007075        5.0683414785       -0.0544721119
 C        -8.3887043064        6.4018096528       -0.9099430813
 O        -8.7548926142        6.3904598893       -2.0809976499
 C        -7.7374983130        7.7477924116       -0.6340784284
 C        -6.8118674417        8.2095188200       -1.9499189867
 O        -6.9939523434        9.2592103959       -2.5648513614
 C        -5.8272860430        7.1172601578       -2.3848959867
 C        -4.4348748984        7.4958676213       -2.7396245394
 C        -3.9873378857        6.6162881283       -3.9030729399
 O        -3.9939799060        5.4421694532       -3.6589828011
 C        -3.5166198898        7.2784874806       -5.2099721869
 C        -4.7046609550        7.3091047843       -6.1420342393
 O        -5.7940998392        6.9382775026       -5.7296034357
 C        -4.5818087010        7.7030359204       -7.6368025448
 C        -2.9913101512        8.7130505734       -5.1382250573
 C        -2.3776538060        6.4098847467       -5.8273999646
 C        -8.7896692884        8.8041544684       -0.2209157501
 C        -6.6173844020        7.7640604457        0.5422485796
 C        -7.1525077131        1.3369650664        0.4669942407
 C        -7.5632902116        1.0463933062       -2.1640825666
 C        -9.0291873074        1.5788610066        4.2989419743
 C        -8.4347605906       -0.9317852684        4.6528936759
 C       -15.5821934965       -0.6219797023        2.6022083357
 C       -13.6151774934       -1.9327369257        1.5822821847
 C       -14.4742572144        5.3310231711       -1.3796306903
 C       -14.1059424509        6.1838243027        1.1816221060
 H       -18.2184664657        6.3094024339       -0.0826168221
 H       -17.3814070644        6.0676895292       -1.5273215121
 H       -16.5882827492        7.0780341215       -0.3028771846
 H       -15.1119562841        2.2620628620       -1.1295557860
 H       -16.3311536182        3.1917028623       -0.3218667635
 H       -16.5061193698        0.9917754721        0.4242039942
 H       -15.7918656879        1.8191058876        1.7362481677
 H       -13.4568875936       -1.0100879500        4.5318697544
 H       -14.0708469157        0.5182302013        4.8728207552
 H       -11.9846401547        0.1179391754        6.1681358098
 H       -12.0523208737        1.4697882788        5.0144285083
 H       -10.5501320935       -1.6895325281        1.6237103584
 H        -8.9352347058       -2.1338175787        2.2357978124
 H        -9.2088677161       -2.0704995919       -0.3021740740
 H        -7.8306787026       -1.2223842477        0.5405891188
 H        -8.5029969976        4.0501781246       -2.0607679801
 H        -6.8760468257        3.4684159735       -1.1686713745
 H        -7.3097286042        5.1949084763        0.5946104609
 H        -9.1027242611        4.8695548999        0.4081810050
 H        -6.2208701035        6.6835476720       -3.2226708876
 H        -5.8585814548        6.2170652622       -1.7366345859
 H        -3.7735657009        7.5604315486       -1.8237845208
 H        -4.3817973610        8.5289271507       -3.1231685762
 H        -4.7117215488        8.7914838124       -7.6280075146
 H        -5.4698254137        7.2368977366       -8.1639163801
 H        -3.6078681947        7.3330093734       -7.9876935966
 H        -2.2501250140        8.7211862342       -5.9143501892
 H        -2.3239549062        8.9531189701       -4.2748348239
 H        -3.9545946838        9.2741213423       -5.1657517575
 H        -2.0326853477        7.1365835314       -6.5489828898
 H        -2.5182165501        5.4687277885       -6.3646109441
 H        -1.6008437522        6.2038076587       -4.9646872597
 H        -9.5122591911        8.5907125368       -0.9842326760
 H        -8.5862694356        9.8247612312       -0.3140612352
 H        -9.0645345446        8.6629563179        0.7885945852
 H        -6.9438071453        7.8137824528        1.6235029509
 H        -6.0569976376        8.6874327281        0.2727577129
 H        -5.7555486202        7.0540554729        0.4233842324
 H        -6.2170836629        1.8135087856        0.4903060796
 H        -6.6958314448        0.3477251377        0.6510959065
 H        -7.5978637890        1.5270778376        1.4325892946
 H        -8.2937484223        0.8923815390       -2.9097016218
 H        -6.8644958517        0.3160448488       -2.1826530103
 H        -6.9743723892        1.8241150828       -2.5292723544
 H        -7.9787603294        1.8573473243        4.0912705342
 H        -9.3804242128        1.8463977541        5.3046189308
 H        -9.5655505580        2.1051818114        3.4882482200
 H        -8.9096615623       -1.9351546417        4.4620225152
 H        -8.1065546141       -0.7810996925        5.6264133841
 H        -7.4694245755       -0.9127258942        4.1505991725
 H       -15.5309385422       -1.4516782712        3.3099693667
 H       -16.3860079595       -1.0300497603        1.8812098818
 H       -15.9928169484        0.1009109992        3.2923444581
 H       -12.6060664270       -1.6896217044        1.1500347259
 H       -14.2658687387       -2.4614359083        0.8626379399
 H       -13.3713661002       -2.6030007161        2.3182396244
 H       -13.4593010198        4.9834798052       -1.5159854623
 H       -14.7346769330        6.2864940324       -1.9416356721
 H       -15.1577633528        4.5412446558       -1.8097761747
 H       -14.1261366904        7.2055836643        0.8197904048
 H       -13.0468728193        6.0488925647        1.1834733153
 H       -14.5762465407        6.0325878440        2.0583203632
 Na      -11.9167486999        1.4584647252        0.1426619113
