117

 C       -17.1878028148        6.3243433273       -0.5083628435
 C       -16.4095446336        5.4434664852        0.4816001934
 O       -17.0462604176        4.7077738628        1.2509769097
 C       -14.8502691892        5.1211185800        0.1976235296
 C       -14.3632954009        3.6983268777        0.4486350813
 O       -13.2688625897        3.4215531921        0.8793845921
 C       -15.3703127213        2.7409702919       -0.1543267958
 C       -15.6789729337        1.5455197455        0.6475073487
 C       -14.4180097322        0.4862611862        0.6946245921
 O       -13.6610304312        0.5142601689       -0.3142635342
 C       -14.1194960326       -0.3751353254        1.8440512773
 C       -13.1752156197        0.2098382657        2.8851472024
 O       -12.2020027126        0.8276061347        2.4003851855
 C       -13.2822347068        0.0982048271        4.3761467453
 C       -11.9207928235        0.5481221411        5.1192254576
 C       -10.8246633261       -0.3934913838        4.4231303551
 O       -11.2174020470       -1.5127072817        4.2673819276
 C        -9.4391274023        0.1209542783        4.0056459999
 C        -9.5785512575        0.1026774067        2.4520461299
 O        -9.8018252666        1.1303671819        1.8574960944
 C        -9.6732882327       -1.1970928685        1.6384614392
 C        -8.8188721773       -1.2055932493        0.3572075016
 C        -9.2474660407        0.0769125212       -0.4870367042
 O       -10.2997759127        0.0080729405       -1.0452821161
 C        -8.2077540109        1.1955882214       -0.6794698817
 C        -8.9665063214        2.6432997267       -0.6952511203
 O       -10.0735387998        2.7663573177       -0.3255740043
 C        -7.9934422716        3.8684225955       -0.9116761780
 C        -8.1221672201        5.2932184394       -0.1180040480
 C        -8.1075643070        6.4527818731       -1.1048814645
 O        -8.8675337643        6.3787867869       -2.0925790042
 C        -7.5716299617        7.9256934078       -0.7149905548
 C        -6.8894805567        8.2014810589       -1.9815881993
 O        -7.0326993681        9.1598115090       -2.6857666907
 C        -5.9550104074        7.0907224268       -2.4754468276
 C        -4.4935091257        7.5926077950       -2.7889816813
 C        -3.8189904993        6.5476275152       -3.7784216320
 O        -3.9678795796        5.3480191881       -3.5735681339
 C        -3.3059033397        7.1257436517       -5.2967522512
 C        -4.8266178786        7.0765321617       -6.0908347127
 O        -5.8489535862        7.0190455489       -5.4820263928
 C        -4.7747334356        7.4251660534       -7.6228870514
 C        -2.8435289881        8.5601481891       -5.2411575063
 C        -2.1306411668        6.2500387485       -5.9291644292
 C        -8.7554208308        8.8386513012       -0.2290326767
 C        -6.6708831080        7.9160426304        0.6564045165
 C        -7.0310617881        1.2642891055        0.4049200189
 C        -7.5075263368        1.0345621414       -2.0011710312
 C        -9.0320567487        1.6110123474        4.3843811985
 C        -8.3878922958       -0.8694195751        4.8103552600
 C       -15.5338113499       -0.5742239487        2.6300506149
 C       -13.6067488791       -1.7746183168        1.5420881893
 C       -14.5282743106        5.4239696437       -1.3552276531
 C       -14.0923975238        6.2269282052        1.0207324780
 H       -18.1892458639        6.7421690173       -0.2663412778
 H       -17.3682069810        5.5066755763       -1.2505726587
 H       -16.5899926235        7.0815806544       -1.0199037380
 H       -15.0832655867        2.3350674588       -1.2461754243
 H       -16.2353110419        3.2844019512       -0.4078509151
 H       -16.6564111046        1.1559369556        0.3889597763
 H       -15.8766306340        1.9448020252        1.6638899547
 H       -13.5245564634       -0.9935289882        4.5516431540
 H       -14.0665513401        0.6138718723        4.8593014406
 H       -11.8779159193        0.3029882625        6.2384032443
 H       -11.9917795061        1.5826787048        4.8311252689
 H       -10.7304083267       -1.1684767171        1.2137383722
 H        -9.4823056594       -2.1150867934        2.1780479671
 H        -9.1460099154       -2.0028195836       -0.1452133991
 H        -7.7311434787       -1.2710204335        0.5303522175
 H        -8.1577855565        4.0452837435       -2.0341230782
 H        -6.9696619805        3.4669639509       -0.6531899534
 H        -7.2448453623        5.3572649710        0.5629740430
 H        -9.0295480799        5.5463644548        0.3527867146
 H        -6.3679555684        6.6009357186       -3.3406227231
 H        -5.8648427465        6.2411654759       -1.8152908908
 H        -3.9483314439        7.6333811998       -1.7846313198
 H        -4.4329307383        8.6287024152       -3.2225091752
 H        -4.9176724060        8.5150728493       -7.7079049144
 H        -5.6043201163        6.9098061790       -8.0519171885
 H        -3.7736557274        7.0338051225       -7.9806291634
 H        -2.4908662718        8.8661203940       -6.1474550290
 H        -1.8214434293        8.5447284307       -4.7205551014
 H        -3.7003043920        9.0909713348       -4.7671485548
 H        -2.0206421033        6.6619543788       -7.0084113503
 H        -2.3435804825        5.1692728489       -6.0088886728
 H        -1.2156785284        6.3128557400       -5.2698194087
 H        -9.2068972642        9.0646297283       -1.2396706457
 H        -8.6186528419        9.7460359964        0.2566329035
 H        -9.3982278846        8.2407331890        0.4765310808
 H        -7.2671495189        7.8623060537        1.5797469906
 H        -6.0694300601        8.8394470708        0.6753585331
 H        -5.9453330137        7.1980570875        0.5760242456
 H        -6.1752796051        1.7348732369       -0.0741254379
 H        -6.4293030981        0.4260823647        0.6947735163
 H        -7.1093677157        1.7859519371        1.3459625857
 H        -8.1227089880        0.9600572042       -2.8048326287
 H        -6.6799364469        0.2967899290       -1.9501783238
 H        -6.7677489202        1.8177573859       -2.3080975610
 H        -8.0043689616        1.5951629736        4.1034553437
 H        -9.1175634952        1.8365217311        5.4135713625
 H        -9.4933813269        2.3529125854        3.6698694629
 H        -8.6502231026       -1.8332870704        4.4639185300
 H        -8.5008203040       -0.7949456513        5.9368678073
 H        -7.3970081887       -0.7010874784        4.7371674038
 H       -15.4000134907       -1.3139436512        3.4047406921
 H       -16.3342718933       -1.0418414537        1.9970090317
 H       -15.9603916220        0.2254285355        3.2093636678
 H       -12.6954078067       -1.6875021250        0.9781277686
 H       -14.3537401016       -2.4453902584        1.1564661493
 H       -13.2112573876       -2.2973836848        2.3847936318
 H       -13.4572305474        5.1038926516       -1.4145265184
 H       -14.5587437025        6.4452107914       -1.6110437582
 H       -15.2099927724        4.8679644784       -2.0515536764
 H       -14.1819544176        7.1782652695        0.4810279210
 H       -13.0708533756        6.1683023388        0.9377049376
 H       -14.4790828620        6.2852666048        2.0221551026
 Na      -11.7826523155        1.3248649489        0.1698391452
