117

 C       -17.2777147924        6.5255926039       -0.4548551652
 C       -16.4654819771        5.6296216383        0.4176896804
 O       -16.9486253360        4.9825715692        1.2775723269
 C       -14.8692241270        5.3207006049        0.0411420000
 C       -14.4840047775        3.7732071695        0.2236751972
 O       -13.3761856462        3.4982017742        0.6466203721
 C       -15.3404757585        2.6951734083       -0.4160434603
 C       -15.7717580495        1.5381887772        0.5537334972
 C       -14.6788287835        0.5497793181        0.6618216468
 O       -13.8351914039        0.3330814802       -0.1332444807
 C       -14.5010022830       -0.3985131641        2.0763946832
 C       -13.3029187536        0.2834245383        2.8742712483
 O       -12.3468933282        0.8426273640        2.3519941411
 C       -13.4288504929        0.4302465466        4.3987175338
 C       -11.9822312930        0.7053342417        4.8565703703
 C       -10.9236417388       -0.3365516556        4.5751928912
 O       -11.1205056775       -1.5478522632        4.5549888296
 C        -9.3936648294        0.1903751361        4.2057838862
 C        -9.5243173774        0.2198930500        2.5573987741
 O        -9.4268037737        1.2328695372        1.8509896203
 C        -9.6764499481       -1.0886805550        1.8590196208
 C        -8.7587709945       -1.1783872140        0.6254007591
 C        -9.0695324592       -0.0119600080       -0.3879416832
 O        -9.9912542331       -0.1686281289       -1.2291637248
 C        -8.1211706546        1.1948235101       -0.6259027087
 C        -8.8251636667        2.6059915629       -0.7551495210
 O        -9.9955785146        2.9243017727       -0.5026132590
 C        -7.9623549889        3.9641180875       -0.9407077753
 C        -8.2615817737        5.1717154057        0.0146400514
 C        -8.3217998850        6.5140750704       -0.9717977702
 O        -8.8651373496        6.3129308330       -2.0054834965
 C        -7.6980925402        7.8465610379       -0.7419221038
 C        -6.9203064365        8.1340238281       -2.0351355581
 O        -7.0350525134        9.2163541487       -2.6202733556
 C        -5.8492666173        7.1581686071       -2.4299527612
 C        -4.4535175837        7.6162678230       -3.0199832970
 C        -3.7298075575        6.4818228397       -3.8251171120
 O        -3.4921157214        5.3557384312       -3.4857589856
 C        -3.2843051633        6.8736926390       -5.2949773805
 C        -4.7389274088        7.0325957254       -6.0693781317
 O        -5.7078965391        6.9932170800       -5.2892242827
 C        -4.8597995543        6.7740581787       -7.5973352071
 C        -2.6063515791        8.3580889945       -5.3905345642
 C        -2.4691958295        5.7327142899       -5.8948085036
 C        -8.8004685081        9.0114109894       -0.6885254938
 C        -6.6885471107        7.8418810327        0.4458613122
 C        -6.9992989611        1.2558287236        0.4434193332
 C        -7.6492526649        0.9663729864       -2.1087387648
 C        -9.2353716425        1.6817574747        4.7431544760
 C        -8.3759170170       -0.8773402853        4.5727388717
 C       -15.7077576499       -0.7850255777        2.8434968933
 C       -13.7110266421       -1.7879837348        1.5601443987
 C       -14.5338808550        5.6208987301       -1.4831846627
 C       -14.0740801352        6.1767655994        1.0375213032
 H       -17.8415612728        7.1011120355        0.2794891995
 H       -17.9704686033        6.0016508349       -1.1292493159
 H       -16.7386289165        7.2780624679       -1.0827852894
 H       -14.8621507321        2.3305655761       -1.2248221841
 H       -16.2589307796        3.2220679721       -0.9160935937
 H       -16.5932476248        0.8849609705        0.2084803786
 H       -16.1507213112        1.9369448844        1.4815669262
 H       -13.7436661179       -0.2590064803        5.1571675544
 H       -14.1270309328        1.3478634139        4.5411877134
 H       -12.0749660325        0.6393219957        5.9360194187
 H       -11.6097639551        1.6567868090        4.4447419635
 H       -10.6909149560       -1.1231806369        1.5382956020
 H        -9.3887790114       -1.9082306601        2.5682572219
 H        -9.1247997433       -2.0773752021       -0.0589344212
 H        -7.6761085845       -1.2990275848        0.7998311351
 H        -8.3399510506        4.3309030222       -1.8620624060
 H        -6.8858208559        3.8170083639       -0.9169918345
 H        -7.5553681382        5.1577194443        0.8711763486
 H        -9.3533939781        5.2331644555        0.4040302521
 H        -6.2992778691        6.5837347385       -3.2864827624
 H        -5.7867531361        6.3146908097       -1.6821398075
 H        -3.6671933853        7.9602216099       -2.2907429476
 H        -4.7490601448        8.4166117398       -3.7510518581
 H        -4.9565185258        7.7324617441       -8.0770723877
 H        -5.7304506786        6.0914508238       -7.6894135169
 H        -3.9863300537        6.3328819760       -7.9372453060
 H        -2.7710295981        8.8361608799       -6.4387636354
 H        -1.5839037142        8.2522331388       -5.4805448250
 H        -3.1205638142        9.0185742514       -4.6787139552
 H        -2.7425724308        5.3856883045       -6.7986719473
 H        -2.5232607680        4.9095074477       -5.2032445692
 H        -1.4187521148        5.9803617832       -5.8358123496
 H        -8.5701734936        9.7243239731       -1.4897122996
 H        -8.5572324232        9.5527692431        0.2845472863
 H        -9.8463122720        8.6750370008       -0.4869132151
 H        -7.2193677616        7.3770401585        1.2323598196
 H        -6.4391304645        8.7996010442        0.8523354778
 H        -5.8014856948        7.2541094870        0.0170162276
 H        -6.2168938400        2.0051214911        0.4790688666
 H        -6.3197952764        0.4062579222        0.4408795747
 H        -7.3369445718        1.3568265701        1.4812333020
 H        -8.4798226513        1.2305054488       -2.8535549782
 H        -6.9553301903        0.1676725193       -2.3561544585
 H        -6.8500506823        1.6990287144       -2.3296414448
 H        -8.3192797321        2.1971668374        4.3657442320
 H        -9.1916308804        1.7482022901        5.8534725265
 H       -10.1330722565        2.0890017937        4.4128210988
 H        -8.4778729582       -1.8706653937        4.0020014426
 H        -8.3867794974       -1.1036625811        5.5990112164
 H        -7.2843362001       -0.5050142281        4.4745398267
 H       -15.6880183055       -1.4181080178        3.7241255642
 H       -16.4889847537       -1.1895127326        2.1803501127
 H       -16.1567311338        0.1471884523        3.1704586391
 H       -12.8849951461       -1.5027548765        0.8885258966
 H       -14.3846366755       -2.5943594630        1.2679403450
 H       -13.1502989027       -2.3058548751        2.3300947865
 H       -13.5386762442        5.4862210285       -1.7546830495
 H       -14.6315160396        6.7368085259       -1.6457814830
 H       -15.3014236677        5.1335354667       -2.0128645222
 H       -14.2357602354        7.2777197934        0.9758467330
 H       -12.9507277327        6.2115969399        0.7373771712
 H       -14.3129514453        5.7697606606        2.0230642617
 Na      -11.4528161206        1.3672508021        0.2633135955
