117

 C       -17.1839750610        6.7029911829       -0.2958992955
 C       -16.3375006918        5.4903690259        0.2432615869
 O       -16.7210564572        5.0821985750        1.3727472175
 C       -14.8935634855        5.2917627539       -0.2063047249
 C       -14.5484483695        3.7857931538       -0.0605828828
 O       -13.4782091857        3.3837097585        0.3502310838
 C       -15.6622712660        2.6113005648       -0.4836670350
 C       -15.7608117363        1.5720023762        0.6098685755
 C       -14.6327268178        0.5304472576        0.7005728351
 O       -13.8134065652        0.4928831260       -0.2236277178
 C       -14.6348426102       -0.4496042389        2.0817847633
 C       -13.4373987071        0.3353012913        2.8690437504
 O       -12.4659727339        0.8482008034        2.3035118528
 C       -13.4229745731        0.3435504363        4.3383286836
 C       -12.1238111402        0.8390147664        5.0723182832
 C       -10.9800253565       -0.1659875784        4.7365096913
 O       -11.2453533756       -1.3423097064        4.8394358378
 C        -9.5605018836        0.2916039786        4.3857102026
 C        -9.6707075333        0.4162956421        2.7494649032
 O        -9.3579169856        1.4648662796        2.2663748742
 C        -9.6483845986       -0.9146925321        1.7753813967
 C        -8.6793099055       -0.9539570310        0.6198387513
 C        -8.9742265282        0.1062061523       -0.3572438551
 O       -10.0098993068        0.1108236827       -0.9671652661
 C        -7.8770528510        1.1880375754       -0.6543138351
 C        -8.6989964475        2.6399577046       -0.6575425830
 O        -9.9058931201        2.8183155157       -0.6005766932
 C        -7.8352303294        3.8897470670       -0.9216154211
 C        -8.2305974745        5.1750775783       -0.1571825241
 C        -8.4930122718        6.3483799179       -1.2040761029
 O        -9.2671006231        6.3230010327       -2.1684182558
 C        -7.7876613932        7.6640531147       -0.8822656871
 C        -6.7349313974        8.0318309359       -2.0318648134
 O        -6.5896737260        9.0872144827       -2.5348444873
 C        -5.6692780811        6.9882706468       -2.4246669367
 C        -4.4358200258        7.7204493679       -3.0494082558
 C        -3.6858446101        6.5026459417       -3.7653292468
 O        -3.0806848980        5.7325581929       -3.0471657237
 C        -3.4066712054        6.5317209549       -5.2955231888
 C        -4.7878197778        6.7515246212       -6.2026123716
 O        -5.7835152565        6.9740798620       -5.5750729902
 C        -4.8250313643        6.3822097045       -7.7231304743
 C        -2.5414349526        7.7461842283       -5.7625684005
 C        -2.5461091903        5.2954066966       -5.7955921669
 C        -8.8365269100        8.8036053316       -0.6740683074
 C        -6.9196958431        7.8182163574        0.5113567071
 C        -6.5651342299        1.2585017972        0.1431295148
 C        -7.4388864330        1.1252227779       -2.1693799842
 C        -9.0613466176        1.6243636342        4.8884076899
 C        -8.3653592344       -0.7462615454        4.7518668900
 C       -16.0483075641       -0.5775285414        2.8307038715
 C       -14.0246670049       -1.7774530449        1.7652167994
 C       -14.5481015452        5.9413817020       -1.5436258719
 C       -14.0338019289        5.9886586956        0.9271116616
 H       -17.7433503396        7.2091160837        0.4771746364
 H       -17.7751508719        6.3742768861       -1.1186130346
 H       -16.5822250480        7.4201255308       -0.7782552760
 H       -15.0952583407        2.0793982348       -1.4060797549
 H       -16.6096047711        2.7090167379       -0.9298152644
 H       -16.6821282877        0.9816605433        0.4697356654
 H       -15.8788855267        2.0591472885        1.6170394163
 H       -13.6280508047       -0.6629788575        4.8057846489
 H       -14.2283429775        0.8925004592        4.6896429466
 H       -12.4200696150        0.9162517095        6.1114791553
 H       -11.8932532652        1.8493537577        4.6649991782
 H       -10.7146478528       -0.9299795405        1.3759827231
 H        -9.3701932663       -1.7319254229        2.3396190987
 H        -8.6287744548       -1.8525255118        0.0855331974
 H        -7.6710832412       -0.7582205349        0.9444039234
 H        -8.0401419221        4.2127347770       -1.9876352923
 H        -6.7702109990        3.5865259223       -0.7858029222
 H        -7.5272249360        5.5875851413        0.5502699785
 H        -9.1323581893        5.0052981166        0.3993051044
 H        -6.1818105932        6.4610337209       -3.2384780441
 H        -5.4719958776        6.2077493706       -1.7378299026
 H        -3.7456847059        8.1326296390       -2.2872271921
 H        -4.9549506325        8.3270773186       -3.8213515154
 H        -5.0844383568        7.2559178212       -8.3624273227
 H        -5.5074162804        5.5613972357       -7.6729283097
 H        -3.8222340564        6.0056646631       -8.1120141792
 H        -2.4666104692        7.7711998934       -6.8675364219
 H        -1.5159365620        7.4570653520       -5.3724469712
 H        -3.0090767254        8.7245315402       -5.6752388582
 H        -3.0820559355        4.6680066929       -6.6216940297
 H        -2.4339867536        4.5192686638       -4.9734089835
 H        -1.5366133236        5.4665228033       -6.1275812863
 H        -8.4249257889        9.7672757199       -0.7639341296
 H        -9.1227813465        8.6477180112        0.3915012575
 H        -9.7346242049        8.6279220797       -1.1880430658
 H        -7.7028120207        7.9193116359        1.3284984940
 H        -6.6069890431        8.8941295991        0.5457389077
 H        -6.1150282334        7.1108371212        0.6197045450
 H        -6.2026360969        2.2770557199        0.2772231184
 H        -5.7298357836        0.6494126126       -0.1544795925
 H        -6.5629660647        1.1840455150        1.1979649025
 H        -8.3564943128        1.2805058734       -2.7550896670
 H        -6.9072132153        0.3153551974       -2.5479149294
 H        -6.7757262868        1.8243112027       -2.4698267619
 H        -8.0325903808        1.4333555995        4.9730410592
 H        -9.3896010825        1.7237855564        5.9192589619
 H        -9.3923605689        2.5366527399        4.3209774454
 H        -8.6170762339       -1.7394692388        4.8596503112
 H        -7.9117429797       -0.4696754017        5.7733507329
 H        -7.5480567498       -0.6761196085        4.0461217721
 H       -15.8223605579       -1.1955855401        3.7350922151
 H       -16.7531957935       -1.1941866138        2.3443987106
 H       -16.6523667780        0.3286791081        3.1490969544
 H       -13.0078148446       -1.7982334669        1.4509841523
 H       -14.6989327766       -2.3117393273        1.0955023131
 H       -14.0472299229       -2.4959891046        2.6421905263
 H       -13.4257658807        5.8886769826       -1.6042337543
 H       -14.6247994000        6.9779261318       -1.4969494539
 H       -15.1614489202        5.5013206504       -2.3478781689
 H       -14.3274053602        7.0046282635        0.9155976739
 H       -13.0050303500        6.0212948945        0.7950777115
 H       -14.3363030304        5.5214538026        1.8943025315
 Na      -11.6409333806        1.4881792874        0.2573345882
