117

 C       -17.1174754545        6.7121451892       -0.3196647302
 C       -16.2516459300        5.6329193445        0.4974801571
 O       -16.7116517085        4.9033522092        1.3383552069
 C       -14.9073276376        5.2914706762       -0.1521677466
 C       -14.6140291852        3.6548668583       -0.1895374257
 O       -13.4921274208        3.3094463006        0.0885553650
 C       -15.7071411256        2.6182482294       -0.4665870688
 C       -15.7851258510        1.6219000169        0.6343158443
 C       -14.7352585316        0.6068514176        0.7168398700
 O       -13.7893686805        0.3379117778       -0.0332942662
 C       -14.5630163887       -0.2835461299        2.0204216488
 C       -13.4185265218        0.3577241728        2.8905984392
 O       -12.4997042708        0.8188924384        2.3542003191
 C       -13.4772978074        0.2109347794        4.5034278592
 C       -12.1926415303        0.8621204359        4.9850267769
 C       -10.9896805249       -0.1124337651        4.9006992930
 O       -11.2410741381       -1.3242963762        4.9160588305
 C        -9.4316075899        0.3393937091        4.4111199655
 C        -9.4252531440        0.4452462363        2.7945707738
 O        -9.5129288244        1.5294893752        2.2527843251
 C        -9.7073695563       -0.7755346012        1.9182265602
 C        -8.5843837536       -0.9199292354        0.8251352660
 C        -8.8682116931        0.1986670307       -0.3544579424
 O        -9.9889256183        0.3552510327       -0.7713837769
 C        -7.8238231243        1.3379641209       -0.8467240242
 C        -8.5760219360        2.7148110311       -0.7090764432
 O        -9.8111227190        2.7375323320       -0.4992843998
 C        -7.8039604686        3.9551924997       -1.0074834832
 C        -8.2855677901        5.1864170385       -0.3315195653
 C        -8.4765050667        6.4362539946       -1.1752101238
 O        -9.2648485736        6.3538923829       -2.0426080380
 C        -7.7911919346        7.7391113578       -0.9336295433
 C        -6.6274254420        8.0221556893       -2.0120065366
 O        -6.6350635811        9.2052642438       -2.3604988804
 C        -5.6660290136        6.8982471608       -2.4939394125
 C        -4.4002299862        7.6244975736       -3.2811961274
 C        -3.4060909029        6.5408880077       -3.8175564109
 O        -2.8725432034        5.8130814892       -3.0141105273
 C        -3.4159075547        6.3657555161       -5.3873533180
 C        -4.8017021420        6.4043091877       -6.1511108563
 O        -5.7805660063        6.9883834708       -5.6747485438
 C        -4.7554241243        6.2755221708       -7.7018371216
 C        -2.6149769106        7.6116705642       -5.8592650275
 C        -2.7466658169        4.9721145115       -5.5776951870
 C        -8.9141283064        8.7441640653       -0.9262348466
 C        -6.9881119761        7.6332417055        0.5093760902
 C        -6.5493846706        1.1566101332        0.0294543487
 C        -7.3591377815        1.1536076829       -2.2773464313
 C        -9.1560563474        1.7890134211        5.0266413288
 C        -8.6441873101       -0.8387148387        4.8485693354
 C       -15.9108046817       -0.2213854318        2.6970728372
 C       -14.1377443969       -1.6777211952        1.6629493893
 C       -14.5314583255        5.8879667848       -1.5458958599
 C       -13.9053526870        5.9727528260        0.8145035127
 H       -17.9793218582        7.1742707392        0.1582758280
 H       -17.2966628250        6.2041934348       -1.2483425695
 H       -16.5402352420        7.5568773879       -0.7116094777
 H       -15.6249101968        2.0233231846       -1.3981612228
 H       -16.7892466639        2.9248116771       -0.6448407014
 H       -16.7767023387        1.1915794540        0.5277749275
 H       -15.7249388195        2.0670999339        1.6638057153
 H       -13.5551238863       -0.8663795490        4.7545553849
 H       -14.2759895164        0.6534136686        5.1396828706
 H       -12.3883702432        1.1914531099        6.0726207421
 H       -12.0966814103        1.8517128970        4.3434369309
 H       -10.6619368672       -0.5138424308        1.3381189208
 H        -9.7420200020       -1.6827792556        2.5080881958
 H        -8.6295876273       -1.9164109727        0.2848910222
 H        -7.6228528017       -0.8610448212        1.1579226446
 H        -7.8898058853        4.1264812253       -2.1397910073
 H        -6.7048575044        3.6991985467       -0.7252522421
 H        -7.7208422075        5.4596606850        0.5203937515
 H        -9.2465284113        4.8740432191        0.1768665311
 H        -6.3667241802        6.1251284525       -2.9662970347
 H        -5.3183688064        6.4118944843       -1.6453227499
 H        -3.9111228786        8.1020651880       -2.4354285536
 H        -4.8399133892        8.1924228942       -4.1288260065
 H        -5.1226818551        7.1915449576       -8.2067265190
 H        -5.2403484310        5.3081013204       -7.9475626609
 H        -3.7320870350        6.2256682740       -7.9960353187
 H        -2.1314023317        7.6258256861       -6.9494723560
 H        -1.8955485152        7.6898411620       -5.0896762352
 H        -3.2496973651        8.4589311762       -6.0886393022
 H        -3.3128925773        4.2360725701       -6.1435932758
 H        -2.6403907129        4.4363384906       -4.5241722287
 H        -1.7284177630        4.9211250919       -6.0165072410
 H        -8.6330343170        9.6708509844       -0.4298403540
 H        -9.7557069532        8.2407094965       -0.3071280044
 H        -9.3246458904        8.9479956698       -1.9350798567
 H        -7.7278546402        7.5328113707        1.2591452011
 H        -6.4829952357        8.5018567078        0.7705347150
 H        -6.3184092244        6.7533911567        0.4234928150
 H        -5.8764237444        2.0123464157        0.0916825035
 H        -5.9943489425        0.2531481336       -0.1180412256
 H        -6.6840290032        1.2422238626        1.0873695907
 H        -8.2167173164        1.0696339688       -3.0327154166
 H        -6.9173704616        0.1293778297       -2.3152760161
 H        -6.5732933575        1.7747436913       -2.7691283496
 H        -8.0814717773        1.9236185227        4.9992736252
 H        -9.5289841377        1.9350019829        6.0399392176
 H        -9.6858316923        2.4422218795        4.3962163625
 H        -9.2085668613       -1.7179311047        5.0950563245
 H        -8.2640469016       -0.6286474829        5.7637828441
 H        -7.8084189541       -1.2034425958        4.1954857500
 H       -15.9041310826       -0.8840884968        3.5894506373
 H       -16.5341760765       -0.7856622940        2.0677905727
 H       -16.5197387454        0.6458301417        2.8819301423
 H       -13.1274608804       -1.8557644694        1.3554315837
 H       -14.7875109874       -2.1988038943        0.9827657654
 H       -14.2690071609       -2.2705091812        2.6228686807
 H       -13.4562775411        5.7328088385       -1.7096312988
 H       -14.5563679470        7.0018771524       -1.4842124299
 H       -15.1932608035        5.5045378717       -2.2853165763
 H       -14.0702726926        6.9983711717        0.7524576032
 H       -12.8239760410        5.7402541242        0.6079383308
 H       -14.0942249036        5.6595543651        1.8506018082
 Na      -11.8465222611        1.5752555086        0.2163851193
