117

 C       -16.8592993913        6.6704771160        0.2028326289
 C       -16.0203908674        5.4239763113        0.4211356663
 O       -16.3364345212        4.6327034499        1.2465870953
 C       -14.6706800320        5.1609275320       -0.4160831621
 C       -14.3905734724        3.6333658037       -0.5695702211
 O       -13.2233067107        3.2463107150       -0.5604236450
 C       -15.4744265094        2.6988483969       -0.8176782571
 C       -15.9983554393        1.8749374582        0.4668153703
 C       -14.9740767670        0.7974493897        0.8362875186
 O       -14.0580313351        0.5803612115        0.0295180635
 C       -14.9416875525        0.0111669217        2.1257162591
 C       -13.4383992146        0.4841152467        2.7509654031
 O       -12.4315004427        0.8052777476        2.2283744558
 C       -13.5503266896        0.6917628316        4.3637964902
 C       -12.3351882371        0.7760334117        5.2124242565
 C       -11.0642806915       -0.1212072328        4.9418472808
 O       -11.2369935504       -1.3042425467        4.9707961435
 C        -9.6541946460        0.4255283200        4.5332012971
 C        -9.7172895221        0.5821895295        3.0794485797
 O        -9.8269144756        1.7050531348        2.5999085771
 C        -9.7231030959       -0.7467181926        2.2892013898
 C        -8.4265832233       -0.5903725327        1.3661393181
 C        -8.8086983856        0.2235507442       -0.0454918070
 O        -9.8894166186       -0.0607432771       -0.5075685235
 C        -7.9976903444        1.3191453218       -0.7900242879
 C        -8.6847949712        2.8047186837       -0.7508784064
 O        -9.7078428678        3.0542119392       -0.1014265812
 C        -7.8815523252        3.9452769702       -1.3379837656
 C        -7.9258047488        5.2721511371       -0.6092345451
 C        -8.4350902055        6.5109611436       -1.4157906465
 O        -9.0206385664        6.4538582487       -2.4532420112
 C        -7.8182294182        7.9610780740       -1.0001356681
 C        -6.5008358552        8.2442872461       -1.9919125024
 O        -6.1150431404        9.4099958102       -2.0389368359
 C        -5.8126268744        7.0088871172       -2.6497366977
 C        -4.5518815776        7.5501308475       -3.5643386401
 C        -3.4942294544        6.5559230206       -3.8791354895
 O        -2.7070184542        6.0968768642       -3.0596304647
 C        -3.4268280049        5.9183723657       -5.4004816974
 C        -4.7105949158        6.0033908965       -6.2763293655
 O        -5.7234887922        6.1556687238       -5.6077443720
 C        -4.7578910136        5.4173638070       -7.7562178207
 C        -2.1737511100        6.5584944578       -6.0310165154
 C        -3.1259847752        4.4658085943       -5.0783519909
 C        -8.9548084542        9.0022575960       -1.2155796266
 C        -7.2197129490        8.0445331289        0.4522258945
 C        -6.5151304789        1.2941841982       -0.3257546272
 C        -8.0074180253        0.6701141097       -2.2550067507
 C        -9.4732729376        1.8436586587        5.3284046745
 C        -8.4746093244       -0.4740027291        5.1146587997
 C       -16.2015714497        0.1582144289        3.0111418352
 C       -14.5677133469       -1.4545957209        1.8026922038
 C       -14.6075721831        5.8779352105       -1.7870019606
 C       -13.7451164953        5.9292591039        0.4955966312
 H       -17.8393264168        6.4677874015       -0.1369852121
 H       -16.3685197263        7.4231822233       -0.3850757314
 H       -17.1013970658        7.1422513261        1.1507850278
 H       -15.1652660996        1.9939858276       -1.5806896054
 H       -16.4467058034        3.1637063227       -1.3359312083
 H       -16.9162898773        1.2862945546        0.2880967008
 H       -16.1384400747        2.7687821277        1.1382867595
 H       -14.1600011618       -0.0046948253        4.8592902780
 H       -14.1728940799        1.5933898723        4.5045037137
 H       -12.5916896261        0.8364034093        6.3227218837
 H       -11.8749004848        1.7962354782        5.0138122842
 H       -10.5861239143       -0.8092530834        1.6218654904
 H        -9.5822241867       -1.6983905958        2.8876108496
 H        -8.0034201499       -1.5688591622        1.1348690607
 H        -7.6100902159       -0.1493555122        1.8798320542
 H        -8.2250328243        4.1307038524       -2.3897455903
 H        -6.7735194371        3.7370901912       -1.5841419591
 H        -6.9581934645        5.5403681843       -0.3396234015
 H        -8.2490379246        5.1431790645        0.4150550862
 H        -6.5277136120        6.7055654434       -3.4610920383
 H        -5.6840397770        6.2133166481       -1.9900925461
 H        -4.0360028519        8.2758025594       -2.9630041055
 H        -5.0262518760        7.7270927629       -4.5001382244
 H        -5.7159570966        5.7265285051       -8.2144589948
 H        -4.6680892990        4.3031531562       -7.5830880560
 H        -4.0405504994        5.8723010277       -8.3993288758
 H        -2.3148464256        6.5120095975       -7.1496882158
 H        -1.3730000408        6.1320504361       -5.4790248306
 H        -1.8803305100        7.6204705848       -5.8020221027
 H        -3.6991255828        4.1240867830       -4.2267544231
 H        -2.0870660433        4.1705038828       -4.7990706464
 H        -3.4161652162        3.6914126959       -5.9130076102
 H        -9.2887270201        9.3307215351       -0.2211691147
 H        -9.8069645098        8.4851966381       -1.5246316594
 H        -8.8002393096        9.9437991366       -1.6960351433
 H        -7.8782968549        7.6552407752        1.2031404211
 H        -6.7194257425        8.9918738709        0.5815493671
 H        -6.4418828562        7.1723584877        0.4066029984
 H        -5.8882046464        2.0311328599       -0.8333534270
 H        -5.9881518621        0.3666153350       -0.3110512241
 H        -6.3373926573        1.6287439529        0.7089348308
 H        -8.8569587825        0.3402418436       -2.6582948528
 H        -7.6661325914       -0.3159768615       -2.0411595306
 H        -7.4098175841        1.2305530335       -3.0316377260
 H        -8.4867870707        2.2917399073        5.0541769091
 H        -9.7007248975        1.7211934371        6.4045047958
 H       -10.1742825036        2.5460305619        4.9608464013
 H        -8.2124646315       -1.4550187922        4.7303343629
 H        -8.6923919986       -0.5729031616        6.1234196326
 H        -7.5233010304        0.0275489716        4.9536676361
 H       -16.1668550503       -0.1836811101        4.0672204058
 H       -17.1223826801       -0.2856000948        2.5435006115
 H       -16.4814932027        1.1932053705        2.8984870264
 H       -13.9566472115       -1.4500262226        0.8817909345
 H       -15.2993479043       -2.1850756924        1.4761558735
 H       -13.9699908743       -1.8273554104        2.6189415651
 H       -13.6240509636        5.6033775272       -2.1139883285
 H       -14.7592895327        7.0034416224       -1.6637324856
 H       -15.2350699541        5.4729779161       -2.5663264449
 H       -14.1550870866        6.9198403658        0.5334757794
 H       -12.7300072946        5.8145520729        0.1750378215
 H       -13.7050375602        5.6549237315        1.4622551477
 Na      -11.5605254428        1.5724986399        0.2583407862
