117

 C       -16.8254124566        6.6795599928        0.3092951509
 C       -16.0182165409        5.3938621336        0.3946088654
 O       -16.2008335620        4.5426535196        1.2612182573
 C       -14.6459543139        5.2798340558       -0.4961993934
 C       -14.3190701154        3.6004691481       -0.6556672659
 O       -13.1547424149        3.2100987100       -0.5004121763
 C       -15.5312202145        2.7829452564       -0.9317184900
 C       -15.9474228393        1.8388617183        0.3936376107
 C       -14.7760665805        0.8056255952        0.7388174323
 O       -13.8531793569        0.5972195907       -0.0093741501
 C       -14.8618847350        0.1652109570        2.1692099693
 C       -13.6973556682        0.6284021738        2.9472279660
 O       -12.6549276873        0.6889157742        2.2439451793
 C       -13.5723577288        0.6790455070        4.4685399919
 C       -12.2390126759        0.8580416809        5.1701800503
 C       -11.0653501531       -0.1773654316        4.9316137297
 O       -11.1540383589       -1.3666237541        4.9188620008
 C        -9.7377635149        0.4990967298        4.7179658539
 C        -9.7920908655        0.6541927076        3.1099606384
 O        -9.9684460927        1.7236185732        2.5197385559
 C        -9.6291689456       -0.6173712059        2.2896943890
 C        -8.4004666665       -0.4456886569        1.3519450218
 C        -8.9709164293        0.1337818672        0.1358545431
 O       -10.0309346120       -0.2421903531       -0.3370084228
 C        -8.0400291321        1.2878146523       -0.6805655930
 C        -8.6207093059        2.7830216698       -0.7153654577
 O        -9.6549201558        3.0371397482       -0.2137955486
 C        -7.9828509937        3.9776770322       -1.5684820244
 C        -7.7901697928        5.2681805069       -0.7082605590
 C        -8.1164407964        6.5769822159       -1.4937171507
 O        -8.9188437795        6.3637292157       -2.4153141750
 C        -7.7575268377        7.9095034537       -1.0158479937
 C        -6.5033379250        8.3297224957       -1.9713742025
 O        -6.0982263844        9.4397400108       -1.9746494314
 C        -5.8899076417        7.2065994437       -2.7619522080
 C        -4.6582743250        7.6589276733       -3.6856455024
 C        -3.6036182385        6.4618580818       -3.9569216993
 O        -2.8398014398        6.1894957285       -3.0615744596
 C        -3.3505874982        5.6945438061       -5.3267591943
 C        -4.7088992964        5.7171169567       -6.1044981776
 O        -5.7468731889        6.0246010650       -5.6136611784
 C        -4.6595072610        5.3761299007       -7.5676771047
 C        -2.1913614127        6.3820865507       -6.2160865047
 C        -3.1771816459        4.2000613010       -4.9523423064
 C        -8.7899503787        8.9317610816       -1.4036668851
 C        -7.2104642507        8.1009338219        0.4151447390
 C        -6.6021673971        1.3172875039       -0.3199819092
 C        -8.1457987283        0.9209845418       -2.2394994838
 C        -9.4849584893        1.9309757176        5.3369005569
 C        -8.6400752956       -0.4304814147        5.2963726492
 C       -16.1855083300        0.2848984465        2.9308210726
 C       -14.6615067876       -1.3882951907        1.9143974101
 C       -14.6535476629        5.9020097503       -1.9204607298
 C       -13.6297540022        5.9302120391        0.4318837625
 H       -17.6998042957        6.6820513193       -0.3221942497
 H       -16.1412177422        7.4730526133       -0.0134392449
 H       -17.2098963430        7.0222559637        1.2611313796
 H       -15.4402203669        2.0963958315       -1.8124093014
 H       -16.3637924512        3.4426255960       -1.2548955553
 H       -16.9022287708        1.2480547487        0.3817624265
 H       -15.9079297899        2.6189369561        1.1333132316
 H       -14.0053793039       -0.1965799060        4.9731925658
 H       -14.3642703429        1.4618952043        4.7673983401
 H       -12.4081655012        0.8141008759        6.3579538017
 H       -11.7674407358        1.8670351258        5.0715678102
 H       -10.4912942008       -0.7998993464        1.6588421442
 H        -9.3917737959       -1.5838196871        2.9150097633
 H        -7.8834207406       -1.3506828292        1.0343363541
 H        -7.4910948055        0.1506783410        1.7869844093
 H        -8.7880279405        4.3116053475       -2.3056836627
 H        -7.1165016188        3.9689271933       -2.3051350918
 H        -6.8894888138        5.2411006545       -0.0471072167
 H        -8.4900847908        5.2460105391        0.1337561551
 H        -6.5815676138        6.6279661389       -3.3241418969
 H        -5.3917768216        6.5498271726       -1.9837922964
 H        -4.0526913958        8.1461574815       -2.9298219575
 H        -4.9540711984        8.0624486025       -4.6170790608
 H        -5.5711081886        5.7313887574       -8.0169546115
 H        -4.3841560474        4.3265714020       -7.7996539472
 H        -3.9725919032        6.1414071863       -7.9753755235
 H        -2.4282350642        6.3204396063       -7.2055548788
 H        -1.2213990599        6.1373122209       -5.7959931079
 H        -2.0415070604        7.4548303544       -5.8573812877
 H        -3.8332727834        3.8752349755       -4.0630868228
 H        -2.1993426445        3.9359714107       -4.6158975326
 H        -3.3733218025        3.4121118742       -5.7594145791
 H        -9.5922946564        9.1802159596       -0.6297631107
 H        -9.3872726438        8.5417577725       -2.1912602645
 H        -8.3163287080        9.9515015184       -1.5801685996
 H        -8.0170301428        7.6706586759        0.9354086129
 H        -7.0391875513        9.1613892337        0.5180852015
 H        -6.4001641952        7.5313286735        0.7350101659
 H        -6.0799347679        2.0240367766       -0.9448440557
 H        -6.0117659737        0.3916453851       -0.3351862169
 H        -6.3529644863        1.6586830580        0.7035248444
 H        -9.2672809776        0.8008884195       -2.5399707315
 H        -7.9817783104       -0.1738556546       -2.5157177393
 H        -7.6937775123        1.7318422534       -2.8560821912
 H        -8.4316796668        2.1295359792        5.1732903334
 H        -9.8506363496        2.0706228541        6.3324839781
 H        -9.9034128644        2.6833546147        4.6661802074
 H        -8.7135360435       -1.4296794915        4.9386736949
 H        -8.8648776551       -0.5411955581        6.4112524416
 H        -7.6590994821       -0.2237942681        5.1331600306
 H       -16.0452017433        0.0112303362        3.9321737580
 H       -16.9749388501       -0.4578769980        2.5215651451
 H       -16.7159824854        1.2265459947        2.8644268899
 H       -13.9857546935       -1.6152017658        1.0514126942
 H       -15.5251928836       -1.9357484638        1.5228418865
 H       -14.2965938269       -1.7880858444        2.7834500362
 H       -13.7215670532        5.7253144797       -2.4013555921
 H       -14.9767651458        6.9293299658       -1.7853867578
 H       -15.3633289848        5.4190942757       -2.5972112479
 H       -13.8697558632        6.9392155321        0.8223916936
 H       -12.7119707600        5.7973233937       -0.0404109600
 H       -13.4458861812        5.3992260830        1.3439350218
 Na      -11.5039069344        1.5219960479        0.2737543750
