117

 C       -16.6633207489        6.7169310823        0.3013791214
 C       -15.7925325276        5.4284176239        0.5622704984
 O       -16.0029638705        4.4931769444        1.2883523628
 C       -14.5749909074        5.3217118750       -0.4402861129
 C       -14.2041207182        3.7240615840       -0.5523971128
 O       -13.0848055606        3.2982423771       -0.3544553220
 C       -15.3452260267        2.6924022364       -1.1065654523
 C       -15.8662928336        1.7307389613        0.0166090897
 C       -14.6668602584        0.8257783155        0.6997812404
 O       -13.6687836078        0.5518002718        0.0828986600
 C       -14.7943475086        0.1216835496        2.1671880002
 C       -13.5955819334        0.4356614477        3.0987332833
 O       -12.5444866907        0.7899062161        2.7160335699
 C       -13.7797419030        0.3373231304        4.5923893596
 C       -12.5386216414        1.0730257614        5.1791973942
 C       -11.2999646141        0.2031414582        4.9466731694
 O       -11.4700918090       -1.0101919526        4.8281153599
 C        -9.8401180730        0.6009415866        4.7870425134
 C        -9.7500812719        0.6365605874        3.2124455510
 O       -10.1896820363        1.6258196948        2.6990223671
 C        -9.1288201913       -0.6034155321        2.5278111491
 C        -8.2434741473       -0.2924701150        1.3097599582
 C        -8.9434449852        0.3441985935       -0.0661522402
 O       -10.1052409008        0.0753561202       -0.3707281934
 C        -8.3030728989        1.3269637048       -0.8906383701
 C        -8.9000709719        2.8037028016       -0.7153086608
 O        -9.9719522809        3.0099068739       -0.1314795242
 C        -8.0335663155        3.8358751307       -1.4214961996
 C        -7.5644782315        5.2381886183       -0.7797524111
 C        -8.0542481816        6.3746029213       -1.5696302300
 O        -8.7833364642        6.2460383791       -2.5221642897
 C        -7.6138954285        7.9099778310       -1.2108679805
 C        -6.2442438062        8.4254651712       -2.0747059453
 O        -5.7855384435        9.5626761977       -1.9887014264
 C        -5.6330168196        7.4226135648       -3.0516384622
 C        -4.4188490703        7.7186429711       -4.0410216670
 C        -3.6034229549        6.4171008576       -3.9177882843
 O        -3.0302725546        6.2399988108       -2.8535437450
 C        -3.4965287027        5.4983311940       -5.1731425056
 C        -4.8493639606        5.3645645861       -6.0537540401
 O        -5.9785950979        5.5662693762       -5.5922957273
 C        -4.7807489872        5.2528833617       -7.5500491168
 C        -2.2478677964        5.9564338178       -5.9351412320
 C        -3.1932085969        4.0435129567       -4.7541865980
 C        -8.6300241144        8.8266223776       -1.6874775512
 C        -7.3450122630        8.0904123379        0.3272627012
 C        -6.7401341189        1.3403651177       -0.4742027883
 C        -8.4759870479        0.9235985832       -2.3819021906
 C        -9.6089842800        2.0770760919        5.3371980062
 C        -8.7040882514       -0.3054412162        5.4493250021
 C       -16.1526583111        0.7187039765        2.6196823211
 C       -14.8716496008       -1.3216091460        2.0303923594
 C       -14.9136506462        5.8401136646       -1.8787151049
 C       -13.2238033799        5.8557392112        0.0279712159
 H       -16.7978101993        6.7639901782       -0.8164264994
 H       -16.2171509096        7.6719777381        0.6389240083
 H       -17.6984552648        6.7677815093        0.7133059985
 H       -15.0307744080        2.0227403145       -1.8600790227
 H       -16.2927577328        3.1940733522       -1.3880914822
 H       -16.6498367944        1.0960646592       -0.2946943412
 H       -16.0813826052        2.4596111068        0.8419837714
 H       -13.8995379673       -0.7360919671        4.9200468555
 H       -14.7120885609        0.7711400430        4.8932498870
 H       -12.5736422468        1.1670539224        6.1870064545
 H       -12.4336728345        2.0714453019        4.8483875219
 H        -9.9524848621       -1.2064531527        2.1305539089
 H        -8.6086342446       -1.2316717106        3.1841838332
 H        -7.5731883696       -1.1205432043        0.9200082658
 H        -7.5454251953        0.3981017219        1.6468773419
 H        -8.4815783327        4.2082005502       -2.3066166459
 H        -7.1815323616        3.4469892647       -1.8961512645
 H        -6.5196291242        5.3148222099       -0.4922504066
 H        -7.9343143241        5.3360879628        0.2753053744
 H        -6.4128863637        7.0471485658       -3.8164742872
 H        -5.2711804719        6.6056064354       -2.4315799498
 H        -3.7906477076        8.5448371081       -3.7147442766
 H        -4.7694531229        7.5931194986       -5.0877310664
 H        -5.6165558399        4.6043115573       -7.8444969971
 H        -3.8503312114        4.7695799186       -7.7725847033
 H        -4.9189747597        6.1456612601       -8.0913351135
 H        -1.9032535968        4.9694637760       -6.4631891964
 H        -1.6073293494        6.3789156537       -5.2025360171
 H        -2.3085052655        6.8971881370       -6.4034430819
 H        -3.9859404784        3.5023317842       -4.4619541679
 H        -2.5425298817        4.0809633056       -3.8820113609
 H        -2.6227537260        3.4164166185       -5.3992494758
 H        -9.5616177101        8.2879879420       -1.8775068737
 H        -8.5129676231        9.2307196646       -2.7145260707
 H        -8.8577369758        9.6099739409       -0.9728301079
 H        -8.2612800348        7.8200711585        0.8500645070
 H        -6.9078037562        9.0419057862        0.4932763495
 H        -6.5539299754        7.2973139044        0.6581687198
 H        -6.1023017953        1.7658374264       -1.2984543993
 H        -6.2599561371        0.3746061932       -0.3772890135
 H        -6.4217849145        1.7538085175        0.4999092739
 H        -9.3573253328        0.8936791867       -2.8595354231
 H        -8.1609122689       -0.0696264754       -2.5855124796
 H        -7.7749390159        1.6729062077       -2.8191930975
 H        -8.5998420720        2.2733129888        5.7014151883
 H       -10.2763296524        2.1100583037        6.2093725902
 H        -9.7801582344        2.8675083920        4.6503016876
 H        -8.7771372039       -1.4366495668        5.5547410941
 H        -8.4230032974       -0.0058961520        6.4222470078
 H        -7.7018676971       -0.1663314730        4.8429785464
 H       -16.4949826169        0.0476171862        3.4605368815
 H       -16.9262491330        0.5912891546        1.9143888220
 H       -16.1240032214        1.7066628469        3.1048246121
 H       -13.9105669026       -1.7627943776        1.9376939115
 H       -15.3060077700       -1.6522997807        1.1220377367
 H       -15.3390346818       -1.7248737067        2.9745094467
 H       -14.0711635502        5.5648910973       -2.4884070614
 H       -15.2032997502        6.8960726481       -1.8130275691
 H       -15.7127212206        5.3301822251       -2.3579871875
 H       -13.3860081151        6.9245738124        0.2779930123
 H       -12.3683747075        5.6683320866       -0.7433142700
 H       -12.8513797726        5.5010539067        0.9888560439
 Na      -11.5999483121        1.5194369723        0.4898501675
