117

 C       -16.0733080071        6.6592558979        0.6609932310
 C       -15.3676390133        5.2888690444        0.5368427656
 O       -15.3875256210        4.4841295246        1.4292972529
 C       -14.3387314697        5.0428704567       -0.7457510757
 C       -13.6987793869        3.6789705744       -0.5330362346
 O       -12.8276387649        3.6034749933        0.3645414211
 C       -14.3187199402        2.4484117785       -1.1702786617
 C       -15.4135529747        1.7913326077       -0.1886143213
 C       -14.6928804472        0.7330983199        0.7827858372
 O       -13.6512604576        0.2461925540        0.2298059182
 C       -15.1962991638        0.4262247605        2.1601332350
 C       -13.8569500367        0.6812655081        3.1593884209
 O       -12.7539468023        0.7419973252        2.6820160977
 C       -14.2005265308        0.7592325600        4.6652680508
 C       -12.8677787674        0.8131049311        5.4832312598
 C       -11.5824586829        0.0173174015        4.9528851241
 O       -11.5952873104       -1.1626605471        4.7612317893
 C       -10.2086427093        0.9172822201        4.7865909092
 C        -9.6734640446        0.9681838456        3.2392234361
 O        -9.6640243531        2.0168038172        2.6742328734
 C        -8.9575646858       -0.2527242617        2.5699350537
 C        -8.0451276922        0.1597040889        1.3832824319
 C        -9.0036706200        0.5417304310        0.1811099430
 O       -10.1851909050        0.2309150473        0.2989835151
 C        -8.3640537181        1.3060584272       -0.9198026534
 C        -8.6965783501        2.9060852171       -0.8546295642
 O        -9.6596930850        3.1734731879       -0.1729216891
 C        -8.1332475081        3.9174310839       -1.7498952500
 C        -8.1818998652        5.3162602957       -1.0356930342
 C        -8.0713384854        6.5216111741       -1.9578662414
 O        -8.5410715562        6.5828023636       -3.0599633212
 C        -7.5300453993        7.9327117524       -1.5418938807
 C        -6.1706136092        8.0757894913       -2.3985558561
 O        -5.3380316729        8.7522304841       -1.9344667893
 C        -5.9162042554        7.5212206082       -3.7622062388
 C        -4.4438572110        7.3970591371       -4.1874577065
 C        -3.6492119410        6.1290666559       -3.7949682363
 O        -3.0947464735        6.0738941439       -2.7112973772
 C        -3.5830582377        5.0102757860       -4.9798646494
 C        -4.8922369649        4.8454801291       -5.7404996625
 O        -5.9443592203        4.7351769106       -5.1408269120
 C        -4.8966080624        4.9248061131       -7.3022797634
 C        -2.3011294780        5.4537822163       -5.7731363621
 C        -3.1186637226        3.6515258384       -4.4147137400
 C        -8.5156732016        9.0554934641       -1.9500649881
 C        -7.2566940489        8.3025347382       -0.0760901177
 C        -6.7682868172        1.0947740175       -1.0610195328
 C        -9.0541290624        0.8640282101       -2.2524257491
 C       -10.3825615141        2.4057273188        5.1743183090
 C        -9.1934676377        0.2106853087        5.7107851838
 C       -16.5218211233        1.2217223811        2.4622252271
 C       -15.3473679654       -1.1861792986        2.2019193935
 C       -15.1501231616        5.2739777799       -2.2031742547
 C       -13.3240146991        6.2166661690       -0.4549145773
 H       -16.2029254110        7.2041728128       -0.2825572284
 H       -15.5209947414        7.3858114419        1.2916297045
 H       -17.0348396804        6.4968280634        1.1998813209
 H       -13.5626858020        1.8286092277       -1.3658549500
 H       -14.9839276563        2.7189903261       -1.9980456945
 H       -16.2134411590        1.3614530789       -0.7401898983
 H       -15.6689729845        2.7247294231        0.3862804077
 H       -14.9588880490       -0.0684109738        4.9030204418
 H       -14.7369235435        1.7243243103        4.8126897833
 H       -13.1040103333        0.4756227896        6.4446138164
 H       -12.4883977252        1.7642516660        5.6464706032
 H        -9.7554769575       -0.7743472551        2.0770257966
 H        -8.4609475447       -1.0466743361        3.1158336258
 H        -7.5940679944       -0.8774958630        1.1300740911
 H        -7.3243322864        0.9249528641        1.6165622677
 H        -8.5687217435        3.8632758160       -2.7890297487
 H        -7.0819464244        3.9137197639       -2.0486466516
 H        -7.3939000437        5.2505547448       -0.2341107333
 H        -9.1928543783        5.3710655747       -0.4499826711
 H        -6.3153034860        8.2774235948       -4.5569702991
 H        -6.2947593353        6.5128571162       -3.8263010823
 H        -3.8165992241        8.2161010960       -3.7239123546
 H        -4.4437519501        7.5197037981       -5.3396158405
 H        -4.3193393486        4.0397704754       -7.6541108010
 H        -4.2957745627        5.8169330663       -7.6229865415
 H        -5.8068355727        4.9338565361       -7.8418505696
 H        -2.3819520835        4.8889367102       -6.6708188412
 H        -1.4164223100        4.9249648951       -5.4453796153
 H        -2.2611142591        6.6071592114       -5.8328091931
 H        -3.5586871874        3.4357873770       -3.4964842387
 H        -2.0952197810        3.5255222738       -4.2679345887
 H        -3.3692368279        2.7700190377       -5.0702815738
 H        -8.7996932461        9.2320524411       -3.0524602953
 H        -8.2982836687        9.9764231753       -1.4966119894
 H        -9.6045909855        8.9009752519       -1.5304099666
 H        -7.8861378599        7.6918061986        0.4324315150
 H        -7.5267792737        9.2894423295        0.1334389101
 H        -6.1819490052        8.1748157566        0.1490644340
 H        -6.3175694735        1.5042121007       -1.9908351631
 H        -6.4675015866        0.0383464609       -1.1551190645
 H        -6.1559934371        1.4889236533       -0.2290309590
 H       -10.1446846636        0.8216100139       -2.0819710049
 H        -8.7396198467       -0.0475618163       -2.8236674218
 H        -8.9084451988        1.6602436057       -3.0332954761
 H        -9.4464761192        3.0010498407        5.1116709227
 H       -10.6721732948        2.5934415480        6.2078506526
 H       -11.0773117588        2.7584533027        4.4912087322
 H        -8.7154825418       -0.7433505863        5.3506124216
 H        -9.5317285282       -0.0778602388        6.6906365245
 H        -8.3346448071        0.8346560230        5.9809090141
 H       -17.0048012251        0.8929720333        3.3649643695
 H       -17.1446985625        1.1173486830        1.5349425444
 H       -16.2767553938        2.2049359942        2.6785211835
 H       -14.6663507052       -1.6213051426        1.4295743568
 H       -16.3795666574       -1.4454606812        1.9258503823
 H       -15.1670236145       -1.7148380570        3.1243912224
 H       -14.4077818713        5.1229169542       -2.9953253513
 H       -15.4400138529        6.3605424939       -2.3773125963
 H       -15.9665745657        4.5839085962       -2.3248733264
 H       -13.7479872074        7.3002446472       -0.6569629806
 H       -12.4760161201        6.2514302319       -1.2154592784
 H       -12.9551753125        6.1211747311        0.5446792160
 Na      -11.3672524330        1.9345038478        0.9150601637
