117

 C       -16.0391365176        6.6129263480        0.7247342796
 C       -15.2904331233        5.3249309616        0.5557618308
 O       -15.3675213993        4.4238106890        1.3842384866
 C       -14.3203533398        5.1079809894       -0.6650727473
 C       -13.6293253175        3.6904678470       -0.4381529215
 O       -12.7517966115        3.6552933635        0.4222084566
 C       -14.1096652788        2.4290961362       -1.0918604309
 C       -15.2652574057        1.9206873393       -0.2032642135
 C       -14.6131668696        0.7510441482        0.6808304974
 O       -13.5554807375        0.1867410596        0.3615712685
 C       -15.1879589943        0.4578169214        2.0588771238
 C       -14.0207789499        0.7162547736        2.9917942090
 O       -12.8854827952        0.7894715975        2.5780594488
 C       -14.1506665587        0.6694677465        4.6058213949
 C       -12.9909605271        0.7234658675        5.6314127613
 C       -11.6440593313        0.1438168107        4.8682165865
 O       -11.7807853287       -1.0054705047        4.5810332035
 C       -10.2459844004        0.9813372811        4.7983523595
 C        -9.6313576463        1.0195270344        3.3685517376
 O        -9.6508867832        2.0720048287        2.6989896127
 C        -8.9482544071       -0.2736571821        2.7266321233
 C        -8.1033745417        0.1769795177        1.5463281013
 C        -8.9804972014        0.5709061351        0.3240873151
 O       -10.1031673649        0.2199755684        0.2419777132
 C        -8.3541738867        1.3790587225       -0.9985858962
 C        -8.7325621649        2.9023362303       -0.8741422599
 O        -9.6546868364        3.1700420601       -0.1516704248
 C        -8.0724976915        4.0895704681       -1.7245081865
 C        -8.3019908034        5.5220354182       -1.0638688013
 C        -8.2340884435        6.6670694510       -2.1108886880
 O        -8.7036713273        6.4694691319       -3.2271538137
 C        -7.5025104868        7.9521156516       -1.6583098385
 C        -5.9289996996        8.1791687905       -2.4663895137
 O        -5.0660377526        8.6923284487       -1.7650878263
 C        -5.9193793249        7.5280170632       -3.9000242210
 C        -4.4885068284        7.3007474565       -4.3846257317
 C        -3.7608645404        5.9730728908       -3.8444096292
 O        -3.2079222911        5.9247129565       -2.7986618203
 C        -3.5212005951        4.8381759920       -4.8905182842
 C        -4.7937401041        4.7186591925       -5.6029634891
 O        -5.8221701760        4.6133226466       -5.0125033529
 C        -4.8903926192        4.8790486041       -7.1746751756
 C        -2.4058506730        5.5398059493       -5.8307483222
 C        -3.1919522923        3.4861968225       -4.1667767027
 C        -8.4822064560        9.0837094876       -2.2089148064
 C        -7.2251626288        7.9055744785       -0.0814031218
 C        -6.9275029654        0.9973261587       -1.2313808028
 C        -9.1111088947        0.8078099410       -2.2447535727
 C       -10.5764492598        2.4066817282        5.2306098090
 C        -9.1255440871        0.4223449951        5.6658162368
 C       -16.4182127226        1.2777800512        2.4580908755
 C       -15.4084739440       -1.0387247938        2.4186475275
 C       -15.1335362184        5.2407977240       -1.9947237208
 C       -13.2584682973        6.2206156219       -0.8684222990
 H       -16.1296281436        7.1280399440       -0.2508019597
 H       -15.4579507975        7.3875583665        1.3164028113
 H       -17.0209173372        6.4467105662        1.2389569273
 H       -13.2927560607        1.7002093587       -1.0973814672
 H       -14.5983847905        2.6564934269       -2.0482661553
 H       -16.0633170140        1.4671981406       -0.7962521197
 H       -15.5705083814        2.7557839891        0.4053061768
 H       -14.7329656496       -0.1736936429        4.8285869282
 H       -14.8004242250        1.5613021862        4.8362098625
 H       -13.2991432865       -0.0039495579        6.3767077113
 H       -12.8640871048        1.6158536216        6.1648014962
 H        -9.6463247763       -0.9883674282        2.5091835290
 H        -8.1438359763       -0.8222363495        3.3173990137
 H        -7.4797378664       -0.6050726928        1.2841316279
 H        -7.5869264135        1.0831539288        1.8669979510
 H        -8.5590822413        4.0974703656       -2.6736393322
 H        -7.0118532614        4.1558476383       -2.1037876065
 H        -7.6961418148        5.5816134611       -0.1663325543
 H        -9.3660608736        5.4387146229       -0.7433334869
 H        -6.2977816221        8.4058922165       -4.5080440410
 H        -6.4748691495        6.5661045627       -3.9823951624
 H        -3.8113524576        8.1944608451       -4.0474784975
 H        -4.5052946801        7.3180729301       -5.4980239709
 H        -4.0958192449        4.3389826402       -7.6304929753
 H        -4.8008756094        5.9177611972       -7.4945879901
 H        -5.8044813586        4.5099227404       -7.6242664285
 H        -2.4780332912        5.1291215745       -6.7867371273
 H        -1.4011279309        5.2605991692       -5.6301901397
 H        -2.7919230985        6.6537268997       -5.7773421597
 H        -3.7225205781        3.3841717189       -3.2249506857
 H        -2.1951856044        3.3915189200       -3.9581218906
 H        -3.4145294357        2.6290256208       -4.7547699555
 H        -8.5964540594        8.9897316689       -3.2626865732
 H        -8.5545984958       10.0954522923       -1.8572253224
 H        -9.5115172861        8.7577157787       -1.9767828845
 H        -8.1151614520        7.4352855638        0.4122620542
 H        -7.3625556217        8.9730842014        0.2827745914
 H        -6.2716222579        7.5192720989        0.1429439019
 H        -6.4183968092        1.4421976900       -2.0911116524
 H        -6.7574097608       -0.1236562560       -1.3996279408
 H        -6.2625899546        1.3297000496       -0.3785693981
 H       -10.1224136904        0.9952288827       -1.8154614841
 H        -8.9548026335       -0.1706787562       -2.4992193691
 H        -9.0297766852        1.3019613629       -3.0845259380
 H        -9.7523987085        2.9985390959        5.6077113451
 H       -11.2298368600        2.4889799318        6.0630406145
 H       -11.0855015836        2.8180677790        4.3761168781
 H        -8.7560136487       -0.5842907393        5.4066324870
 H        -9.2807231628        0.3057783525        6.8371106658
 H        -8.2560123324        1.0467934879        5.6408525182
 H       -16.8687187696        0.7654167500        3.2902927152
 H       -17.0551633698        1.2247837336        1.5282502939
 H       -16.2136105072        2.3188191423        2.7778508565
 H       -14.6774655319       -1.5704035009        1.7456443333
 H       -16.4390580191       -1.3836146768        2.2555821995
 H       -15.1812435277       -1.3739359008        3.3640478132
 H       -14.2764226112        5.3257632485       -2.6158884849
 H       -15.6594739224        6.1623796274       -2.2322479608
 H       -15.6858152842        4.3509430855       -2.2473957975
 H       -13.7777555605        7.2059607791       -1.1080541828
 H       -12.6376374575        6.1680187870       -1.7360503879
 H       -12.6861963051        6.3340188386        0.0923925442
 Na      -11.3594137388        2.0134005370        0.9987607596
