117

 C       -15.9837003826        6.6292918497        0.7841179098
 C       -15.2018156591        5.3706049823        0.5965320471
 O       -15.3947877483        4.4391777947        1.3692012384
 C       -14.1777591490        5.1952750545       -0.7640124309
 C       -13.5025620424        3.8500661970       -0.4056497874
 O       -12.6605400862        3.8377982691        0.4437049469
 C       -13.9670348473        2.5458876215       -1.1125418041
 C       -15.0698009535        1.7878365019       -0.2634768294
 C       -14.5345070494        0.7207932650        0.6397452855
 O       -13.5756588059        0.1301508931        0.3516566894
 C       -15.1125501234        0.3899373786        2.1583728291
 C       -13.8567320629        0.8319819432        3.1121750345
 O       -12.7282710254        1.0201597194        2.7267933903
 C       -14.2483748019        0.6958290511        4.6056875377
 C       -13.0819815668        0.6578748818        5.4659000656
 C       -11.7081872581        0.1472581897        4.8759305237
 O       -11.6709936090       -0.9066090694        4.2731561525
 C       -10.4451230768        1.0461426768        4.8218567795
 C        -9.7778791871        1.0057026024        3.4300169516
 O        -9.6904839786        2.0735138957        2.7839432122
 C        -8.9722912520       -0.0944054658        2.8886725326
 C        -8.0431304360        0.2552867872        1.5951844985
 C        -8.9197352172        0.6007344259        0.2997008497
 O       -10.0774411988        0.2125263627        0.1717217941
 C        -8.4197010182        1.3710008563       -1.0366952380
 C        -8.7878327116        2.9303657270       -0.8492959453
 O        -9.7179115674        3.3423874039       -0.1163869560
 C        -8.0947476217        4.0054542071       -1.6655582709
 C        -8.4112452257        5.4542170549       -1.1575083138
 C        -8.1907029152        6.5263648628       -2.2345280839
 O        -8.8071386210        6.4449421127       -3.3004919940
 C        -7.4751203599        7.8748580329       -1.8169725624
 C        -6.0068276732        8.1159394547       -2.3429961084
 O        -4.9704740276        8.5040693047       -1.8118967215
 C        -5.8927890297        7.6362086492       -3.8234108605
 C        -4.4284296619        7.2411497356       -4.4255786739
 C        -3.7249845460        5.9797256824       -3.8537668194
 O        -3.4257316094        5.8419833579       -2.6820142260
 C        -3.4562185762        4.8559474009       -4.9149064367
 C        -4.8675907709        4.6009020692       -5.5599482307
 O        -5.8828986307        4.3765454667       -4.8881212035
 C        -5.0018448819        4.7519557253       -7.1295377865
 C        -2.3044217840        5.3703032928       -5.8524712391
 C        -3.1710375768        3.5444896897       -4.0961731022
 C        -8.2402846995        9.0663357920       -2.3436177684
 C        -7.2685572638        7.8632109972       -0.3077331030
 C        -6.9067945372        0.9887212380       -1.3243460332
 C        -9.2909039089        0.7990573801       -2.2569960265
 C       -10.6560694945        2.5645556537        5.2476941294
 C        -9.2250703694        0.5458891098        5.8005963880
 C       -16.4344578646        1.3593617018        2.5391977904
 C       -15.5857108123       -1.0695121294        2.3027862912
 C       -15.2376531127        5.0141415354       -1.8801222367
 C       -13.1516405715        6.2358482923       -1.0095362175
 H       -16.1433330808        7.1476477572       -0.1950166224
 H       -15.4392421346        7.4283114436        1.3358495740
 H       -16.9115546790        6.3890136478        1.3038950797
 H       -13.0187863105        1.8026056701       -1.0316877594
 H       -14.3445565424        2.7343355284       -2.1126793339
 H       -15.7096267859        1.1239865323       -0.9189173494
 H       -15.6414660077        2.4918817178        0.2974218995
 H       -14.7744590759       -0.2213693826        4.5935231341
 H       -14.9348106594        1.4787112387        4.8945869129
 H       -13.3793610798        0.0834330413        6.3907730556
 H       -12.7153572092        1.7001631874        5.8330905835
 H        -9.6701787782       -0.9957458057        2.7628636115
 H        -8.2680927116       -0.4614037016        3.6161833158
 H        -7.4899479541       -0.5961042582        1.3592203777
 H        -7.5200287897        1.1761965833        1.8160542658
 H        -8.2555265279        3.9262662472       -2.7155740469
 H        -7.0081161178        4.0203967318       -1.6357021304
 H        -7.7672380940        5.5568743110       -0.3144394174
 H        -9.4008386255        5.4162235917       -0.8470177379
 H        -6.2219367683        8.4771472409       -4.3267311343
 H        -6.4339663406        6.6845619955       -4.0539491703
 H        -3.7315715900        8.1147097420       -4.5607073574
 H        -4.6429113485        6.9605639851       -5.4733982798
 H        -4.1023268641        4.4767691868       -7.6512665813
 H        -5.2068486408        5.7719471263       -7.3131632215
 H        -5.8807117294        4.2538370399       -7.5887992371
 H        -1.9086085663        4.7566141438       -6.7235928651
 H        -1.3847483964        5.3986793057       -5.2441437385
 H        -2.7540696546        6.2323784305       -6.1807513807
 H        -3.9103374890        3.4311142821       -3.2968732893
 H        -2.1282779227        3.5095655995       -3.5697788237
 H        -3.2061909723        2.6877164674       -4.6673463700
 H        -8.4040979389        8.9779849515       -3.3431149968
 H        -7.9458933338       10.0906662324       -2.0124785016
 H        -9.1945948830        9.0965602274       -2.0231756668
 H        -8.2691300291        8.0485112773        0.2731408829
 H        -6.6747006645        8.7878657281       -0.0482607970
 H        -6.6887748943        6.9477284307       -0.0753227069
 H        -6.4447270931        1.5685800562       -2.1418002900
 H        -6.5927974485       -0.0693092472       -1.5485928135
 H        -6.2690179296        1.4008334463       -0.5103422351
 H       -10.2483532719        1.1272565231       -2.1431935615
 H        -9.1907551780       -0.2529605563       -2.2299859466
 H        -8.9598817863        1.0750103040       -3.3079947244
 H        -9.7106718304        3.0008382059        5.3900720803
 H       -11.0162075634        2.6539062088        6.2687302107
 H       -11.3755155533        3.1720771722        4.6208762497
 H        -9.1324168500       -0.5185791543        5.9183141919
 H        -9.3087335795        0.8527835008        6.8301602612
 H        -8.1829174478        0.8759071766        5.5533912825
 H       -16.8319431581        1.0909755439        3.5591781367
 H       -17.1115464433        1.1376890417        1.7551547941
 H       -16.2068255219        2.5183935179        2.5173462843
 H       -14.7979437369       -1.6807314397        1.9887365628
 H       -16.5246033021       -1.2640529951        1.7879562391
 H       -15.8233733587       -1.4261853128        3.3525578453
 H       -14.8001004395        5.0784413520       -2.8703619464
 H       -15.8826088818        5.8244726835       -1.9216786526
 H       -15.7628486783        4.0913186009       -1.6092573664
 H       -13.5126534513        7.1501015225       -1.2211579535
 H       -12.5810195506        6.1108954532       -1.9115989687
 H       -12.5175121468        6.2603068550       -0.0892257097
 Na      -11.4081036504        1.9892086971        1.1087537759
