117

 C       -15.2819528053        7.0910414899        0.8929237240
 C       -15.0713643214        5.5365058526        0.5927152859
 O       -15.3353223933        4.7968755932        1.5138256893
 C       -14.3236215347        5.0354095698       -0.6687704475
 C       -13.3716764026        3.9343200017       -0.4328472711
 O       -12.5365662516        4.0500936069        0.4048043328
 C       -13.3974296896        2.6235000113       -1.2166866313
 C       -14.4827514093        1.7904281077       -0.4892762175
 C       -14.0459458731        0.7667383519        0.6730241512
 O       -13.0138449751        0.1932087685        0.7078323572
 C       -14.8809640837        0.7181066456        1.9698484980
 C       -13.8953739263        0.9495464940        3.1993105664
 O       -13.1809556609        1.9293903012        3.2443800748
 C       -14.0821814163        0.0126380565        4.4060175598
 C       -13.1021235860        0.3458536788        5.3854552119
 C       -11.6631451279        0.4300967372        4.5744393134
 O       -11.5245436001       -0.4811586987        3.7907508674
 C       -10.5503561317        1.4410929102        4.8691844580
 C        -9.7951693917        1.5473475833        3.5495660778
 O        -9.8803043099        2.5956451097        2.8853953298
 C        -8.8452741642        0.4357174691        3.0074060473
 C        -8.2267126586        0.8060057448        1.6398860254
 C        -9.2131718779        0.7896194221        0.3980783639
 O       -10.2640901870        0.1381906074        0.3751698698
 C        -8.6356239760        1.4065722192       -0.9233656049
 C        -8.9610595540        2.9904305105       -0.8182222211
 O        -9.9578270044        3.2653262543       -0.1159064321
 C        -8.2347976515        4.0969192581       -1.5653005433
 C        -8.6767139995        5.5692008315       -1.2967060874
 C        -8.1455461865        6.4508832573       -2.4387162844
 O        -8.4502866917        6.1529557876       -3.5868110464
 C        -7.3593908188        7.7502450977       -2.1151453724
 C        -5.7875488559        7.7003625367       -2.5646456104
 O        -5.0193147666        7.6225825916       -1.7372235786
 C        -5.6065184554        7.5703691071       -4.0584479431
 C        -4.2543583242        6.9332930312       -4.4225861592
 C        -3.9979698927        5.6012618153       -3.7724784773
 O        -4.2665571640        5.3907277430       -2.6092926633
 C        -3.5775699696        4.4963997020       -4.6756935045
 C        -4.9577198884        4.0039397654       -5.3166815378
 O        -5.6096324103        3.2708632230       -4.5940854464
 C        -5.2283635185        4.1973514167       -6.7973860953
 C        -2.5371455633        4.9545155686       -5.7796033990
 C        -2.8796921526        3.4886903307       -3.8669632450
 C        -8.0731358493        8.9009948630       -2.8001099332
 C        -7.2890180218        8.0918941899       -0.5875109714
 C        -7.1935783189        0.8646183911       -1.1238390057
 C        -9.3922848394        0.8106945147       -2.1152652508
 C       -11.0018401287        2.7543894132        5.3915968022
 C        -9.4697507829        0.9605407963        5.9129989134
 C       -16.1232048852        1.6260855889        2.0407092160
 C       -15.4851899975       -0.6959730887        2.2078779598
 C       -15.3859504900        4.6616169269       -1.7622026131
 C       -13.4933732004        6.2666408254       -1.2387285945
 H       -15.9255072543        7.6688414610        0.1295731749
 H       -14.3310743395        7.6648209272        0.8882495112
 H       -15.7856396487        7.0927157975        1.8815186924
 H       -12.3323746226        2.2420195508       -0.9936255583
 H       -13.5884202107        2.5883600622       -2.2762136830
 H       -14.9260268720        1.1323169112       -1.2477948018
 H       -15.3172308504        2.3510761325       -0.1443062971
 H       -13.7996978556       -0.9291546639        3.8956943036
 H       -15.0433702437       -0.0156264802        4.8562216359
 H       -12.9712691975       -0.4766045781        6.0985153729
 H       -13.2800703994        1.3408880140        5.8743683017
 H        -9.3208274976       -0.6008168725        2.9434712914
 H        -8.0913031994        0.2938593259        3.7172486784
 H        -7.5633429894        0.0827823386        1.2873403008
 H        -7.8786051600        1.7924171844        1.6332695367
 H        -8.5025163530        4.0057612309       -2.6438110729
 H        -7.1555761287        4.0427575278       -1.4836294969
 H        -8.4313959639        5.8836143965       -0.2820007064
 H        -9.7316847059        5.5417453700       -1.5255423447
 H        -5.7147336156        8.5418844177       -4.5286514998
 H        -6.4130929287        6.8023283027       -4.4150126237
 H        -3.4283078176        7.6799131843       -4.4534573178
 H        -4.2339857009        6.8077612499       -5.5148934853
 H        -4.3864098885        3.6981905531       -7.2944983952
 H        -5.1552136568        5.2337077773       -6.9679871657
 H        -6.1756435606        4.0049445746       -7.2788381559
 H        -2.6017224399        4.1350212613       -6.5191776997
 H        -1.5751322148        4.8713902408       -5.2543873574
 H        -2.6049400681        5.7740673237       -6.4208814264
 H        -3.4289758107        3.1174180182       -3.1047217442
 H        -2.0400783321        3.9944808629       -3.3728799136
 H        -2.5076029712        2.6149434299       -4.3806320536
 H        -8.4009850022        8.8190650781       -3.8458920561
 H        -7.6447136480        9.8888875254       -2.6734983019
 H        -8.9878149059        9.0716705220       -2.2770975679
 H        -8.1662036854        7.9714787849        0.0793978599
 H        -6.9763204896        9.1110522980       -0.4871076647
 H        -6.4628654138        7.3908860657       -0.1039416826
 H        -6.8423428406        1.1496585514       -2.1521494861
 H        -7.2654933038       -0.2625013673       -1.0508655994
 H        -6.3410153597        1.2903894339       -0.5732366957
 H       -10.3977114644        0.6124010187       -1.9092859547
 H        -8.8842958017       -0.0599106065       -2.1964420644
 H        -9.3048717070        1.3686141572       -3.0061293831
 H       -10.1891156244        3.3079073724        5.7828093710
 H       -11.8442115574        2.6343158106        6.0879723636
 H       -11.3954635281        3.4125247667        4.5750522093
 H        -9.3329925289       -0.1478844043        6.1173284717
 H        -9.5914553455        1.3730321193        6.8632808239
 H        -8.3574460395        1.2465749707        5.6575767550
 H       -16.8793865057        1.2818402527        2.7925468045
 H       -16.6336569949        1.5812731972        1.1207312651
 H       -15.7002304882        2.6501710640        2.0830599056
 H       -14.8735465127       -1.5289483848        2.2318323589
 H       -16.3575271215       -0.8073491557        1.5914599357
 H       -15.9262050698       -0.6001967169        3.2682130289
 H       -14.7553528090        4.4265536243       -2.6350607477
 H       -16.0429243920        5.4616890135       -2.0044871892
 H       -15.8892740450        3.7294985529       -1.4526599409
 H       -14.1628126503        7.0658152682       -1.5816052464
 H       -12.9724021037        5.9951659180       -2.2407666419
 H       -12.7790612592        6.7446211707       -0.5996007664
 Na      -11.6510938040        2.0098802296        1.0744505961
