117

 C       -14.9312147620        7.3414684383        0.8405863970
 C       -14.8863496592        5.8103614990        0.6533595221
 O       -15.3787995003        4.8828630915        1.2953587672
 C       -14.3639892635        5.2286352149       -0.7232027517
 C       -13.5243331315        3.9352666029       -0.3051040720
 O       -12.8725172478        3.9928288664        0.6600409921
 C       -13.5172622167        2.5885943613       -1.1954702079
 C       -14.5645060241        1.5945359778       -0.6983855834
 C       -14.0890885390        0.9634800186        0.6981776223
 O       -12.9456211766        0.6917273357        0.8496069070
 C       -15.1083994028        0.6217078770        1.8041036273
 C       -14.0615370650        0.9118704169        3.1973550523
 O       -13.4600953635        1.9511846319        3.1702430083
 C       -14.0438994808        0.0740899091        4.4095882094
 C       -12.7996721276        0.3858963205        5.2386683594
 C       -11.4663078324        0.4394323090        4.5798071313
 O       -11.0988485568       -0.4709974707        3.8771725474
 C       -10.4402533338        1.6132660769        4.9069574944
 C        -9.7330069172        1.8901052817        3.6313748333
 O        -9.9957081230        2.9626076532        2.9940962928
 C        -8.7369788545        0.8684046485        3.0046032330
 C        -7.9732568938        1.1869575686        1.6750566476
 C        -9.0606390296        1.0082598197        0.4976844767
 O       -10.0180200758        0.2625679626        0.6552291257
 C        -8.6197845816        1.5453335154       -0.9398000271
 C        -8.9963240927        2.9975727313       -0.9075365225
 O       -10.0464338637        3.4054501593       -0.3185303520
 C        -8.2002328553        3.9571798790       -1.6909374065
 C        -8.4676833262        5.4780665390       -1.3048576012
 C        -7.9427448391        6.3946078919       -2.4901232096
 O        -7.9187410801        5.9127928617       -3.6249290509
 C        -7.4403911872        7.8040435167       -2.1340535615
 C        -5.8543177118        7.6939105008       -2.4659009356
 O        -5.1466187630        7.7673298997       -1.5316693461
 C        -5.5780625367        7.3453654362       -4.0571139321
 C        -4.2928604611        6.6003248371       -4.3350605480
 C        -4.1318366206        5.1592935267       -3.7438937131
 O        -4.5155061115        4.7490274326       -2.6600647784
 C        -3.6043344170        4.1370514621       -4.7432876706
 C        -4.8951939675        3.3111044078       -5.2390204189
 O        -5.2649390955        2.3910899812       -4.4939345188
 C        -5.3659247850        3.7083606432       -6.5855794161
 C        -2.5439673168        4.6075891771       -5.7806276900
 C        -2.8919320369        3.0185513837       -3.8363682545
 C        -8.3080952274        8.7140624441       -3.0122404010
 C        -7.8150087744        8.1296116821       -0.6218023299
 C        -7.1141854980        1.3263670212       -1.2850066894
 C        -9.5155685132        0.8015507865       -2.0370853593
 C       -11.0784387460        2.9459449549        5.3993588370
 C        -9.6194957145        1.0564896743        6.0649874497
 C       -16.2061867817        1.8885401769        1.9357298451
 C       -15.6924610827       -0.7391260941        1.4315629260
 C       -15.7043314129        4.9342652156       -1.6699239981
 C       -13.4288405350        6.1288781345       -1.6550426748
 H       -15.7741117816        7.7200696751        0.2696401369
 H       -14.0134724181        7.8303562624        0.5724684824
 H       -15.1666659059        7.5177091680        1.8662606592
 H       -12.4691420628        2.2195329842       -1.0753542059
 H       -13.5714455268        2.7373270542       -2.2181448015
 H       -14.7332439835        0.7271443555       -1.4175053015
 H       -15.5611916813        1.8919926972       -0.6021151810
 H       -14.0565615385       -0.9735521823        4.1458024056
 H       -14.8603870161        0.3287356995        5.1868901508
 H       -12.6767786188       -0.4227460799        5.8353831112
 H       -12.7910137547        1.2600278195        5.8488883929
 H        -9.3608984719        0.0023583008        2.9863754879
 H        -7.9338991553        0.5181319380        3.6992596530
 H        -7.0797724329        0.5254433974        1.5143672500
 H        -7.6563414542        2.3269088347        1.5904287607
 H        -8.5140119232        3.8703532911       -2.7250545423
 H        -7.0596264574        3.8913037693       -1.5519525294
 H        -7.9021596112        5.6480546682       -0.3236052178
 H        -9.5693636048        5.6536671765       -1.0919538072
 H        -5.6160848121        8.2289151297       -4.6968228802
 H        -6.4020399885        6.7252936616       -4.5484129599
 H        -3.3148878868        7.1527480304       -4.4250241020
 H        -4.2659473196        6.5696989619       -5.4165587324
 H        -5.8534130892        2.8907826344       -7.1427394261
 H        -4.6415770513        4.2524006069       -7.1928931601
 H        -6.1860474722        4.4977033917       -6.4735594709
 H        -2.2025059742        3.7110369538       -6.3735078277
 H        -1.8109458568        5.3578394124       -5.4236976343
 H        -2.9783985377        5.1577974603       -6.5189536710
 H        -3.4690072296        2.6243555182       -3.0345176957
 H        -1.9060885012        3.4018974950       -3.3420064704
 H        -2.6144360897        2.1424067204       -4.3998031348
 H        -8.3968629270        8.5864052790       -4.1219233537
 H        -7.9402797398        9.7988218532       -3.1103019070
 H        -9.3235594890        8.7461959101       -2.5960301811
 H        -8.8524688290        7.9531284841       -0.4728502712
 H        -7.5614078378        9.0967093930       -0.4427712999
 H        -7.3422909046        7.5528682035        0.1853974975
 H        -6.8500015600        1.4953252530       -2.3268730154
 H        -6.8228912061        0.2955117484       -0.9961449704
 H        -6.4802738158        1.9827522771       -0.6734450375
 H       -10.5014032208        1.0868343457       -1.7348154371
 H        -9.5723508824       -0.2897457679       -1.9316392385
 H        -9.2643861610        1.3209518096       -3.0247266026
 H       -10.6176891282        3.7756999289        4.9526309350
 H       -11.0787844263        2.8757652513        6.4606240861
 H       -12.1524011482        3.1530323518        5.1363700763
 H        -8.7953399577        0.4336364748        5.7232957335
 H       -10.2079290171        0.5076055436        6.7230108247
 H        -9.1145818125        1.8477393910        6.6902112298
 H       -16.6434367210        1.8163085209        2.9003399953
 H       -17.0067277338        1.7638518686        1.2967484549
 H       -15.6814886650        2.8286967043        1.5953146162
 H       -14.9647592240       -1.4689326674        1.6429345237
 H       -15.8605600130       -0.7742449525        0.3416994218
 H       -16.5356802245       -1.0038372813        2.1345942319
 H       -15.2562086935        4.5373706411       -2.5980589839
 H       -16.3567742161        5.7604879985       -1.7137226565
 H       -16.3520227956        4.0763220932       -1.3015956928
 H       -13.8416380175        7.0775883019       -1.7802014884
 H       -12.9896711932        5.6374118479       -2.5726555351
 H       -12.4595303327        6.4916550070       -1.2285325115
 Na      -11.4417184372        2.4718498278        1.5377629977
