117

 C       -14.5578294844       -2.5643256394       -4.3020042234
 C       -13.4659240402       -3.3195769627       -3.5151327469
 O       -13.7407277997       -4.4121687243       -3.0694948782
 C       -12.0694148174       -2.6523713314       -3.3775040130
 C       -12.3118623259       -1.4892652182       -2.3204384744
 O       -12.7195418910       -0.3918303370       -2.6537653884
 C       -12.3048065554       -1.9027539862       -0.8177705742
 C       -11.9010679371       -0.7936622464        0.1804695608
 C       -10.9019029542       -1.4677132304        1.2038527955
 O       -11.2795246638       -2.4182256394        1.8252361454
 C        -9.4235804313       -0.9157745927        1.4253627138
 C        -9.6577447803        0.2572380913        2.4448187806
 O       -10.6202177257        0.9816237231        2.4280992728
 C        -8.4855009182        0.5361410107        3.4049843948
 C        -8.7313658813        1.5911451225        4.4592164498
 C        -9.1238449199        2.9430462311        3.7370716809
 O        -8.2020410846        3.3886901146        2.9982505638
 C       -10.3527131428        3.8645806451        4.0798971907
 C       -11.0387764535        4.3381648043        2.6218998961
 O       -10.6793374035        5.3165576776        2.0782664629
 C       -12.1163003183        3.3816578098        2.1701388595
 C       -12.6851129827        3.6993281819        0.7731232963
 C       -11.5768075419        3.9463694020       -0.3351913516
 O       -10.6212849965        3.2037729884       -0.3423036430
 C       -11.7739205925        5.1974600814       -1.3324816519
 C       -10.3422836197        5.8016790500       -1.7447863100
 O        -9.4775036911        5.9994874178       -0.8979949397
 C       -10.0266181971        6.0840424461       -3.1217533858
 C        -8.8936436034        7.1495379680       -3.3324221970
 C        -9.2899945791        8.4850573152       -2.9105187367
 O       -10.5196568223        8.6778498493       -2.9084457890
 C        -8.0960863275        9.5184463590       -2.7180075265
 C        -7.6101488860        9.2574456617       -1.2333679664
 O        -6.7074112440        8.4788801348       -1.1175782696
 C        -8.2500811223        9.8387763718        0.0300818436
 C        -7.2899535418        9.4484945208        1.2413880316
 C        -7.3592479478        7.9342227397        1.2435826648
 O        -8.4275920498        7.4083175378        1.0156924963
 C        -6.0782213430        7.0015555521        1.4888679033
 C        -5.9388465823        6.0719700590        0.2302552066
 O        -6.6395546347        5.1138429853        0.0409344153
 C        -4.9206990932        6.2785162991       -0.8622294551
 C        -4.8322743994        7.8371556228        1.6956400029
 C        -6.3316545953        6.1528364949        2.7382259704
 C        -6.9862597499        9.3775026547       -3.7407804568
 C        -8.6735751493       11.0247996288       -2.9603255524
 C       -12.6231437057        4.7783045060       -2.5883847551
 C       -12.5471580814        6.2989915859       -0.5892501906
 C       -11.2270902562        3.0200939227        5.0478546599
 C        -9.8052958944        5.1501901784        4.7990316187
 C        -8.6694985583       -2.0926654586        2.0163106545
 C        -8.6913858041       -0.4105986899        0.1842783650
 C       -11.0210837483       -3.7707972628       -2.9065353324
 C       -11.6068498242       -2.2240337430       -4.8180788129
 H       -14.0792144837       -1.8782900899       -4.9914355285
 H       -14.9550247688       -1.9567245452       -3.5248968051
 H       -15.2534759412       -3.1578927864       -4.6853850910
 H       -11.6469779105       -2.7516769251       -0.7474774639
 H       -13.4228724966       -2.1911868004       -0.6501536069
 H       -12.7283276530       -0.2185622234        0.5632981563
 H       -11.3933395285       -0.0107616384       -0.3505987592
 H        -7.4825943911        0.5640492705        2.9101701829
 H        -8.2094345685       -0.3596538972        4.0201848707
 H        -7.6437331004        1.7856562900        4.7556228252
 H        -9.3297908461        1.3459311396        5.3098407143
 H       -12.8640842437        3.2696104811        3.0273790337
 H       -11.6489461976        2.4546614746        2.1706032094
 H       -13.3128516648        4.5578601143        0.7827136059
 H       -13.2958253825        2.8550212402        0.3836721083
 H       -10.9191195679        6.3985901024       -3.7137789598
 H        -9.6937000528        5.1862555073       -3.6952901905
 H        -8.7112911645        7.1817504204       -4.4449158787
 H        -7.9006746324        6.8789776049       -2.8480013846
 H        -9.2498490399        9.4901676660        0.0997682327
 H        -8.3273454873       10.8993082812       -0.1442316662
 H        -7.5610231801        9.7126646835        2.2090528474
 H        -6.3127160434        9.8117448672        1.0203545177
 H        -4.1891065794        5.3904038615       -0.8312639486
 H        -4.4688629723        7.2476557973       -0.6412563901
 H        -5.3688449130        6.3479714034       -1.8609566585
 H        -5.0927358675        8.4034214860        2.6434432116
 H        -4.6115553664        8.6082754930        0.8914027577
 H        -4.0121071582        7.2517533551        1.9679603351
 H        -7.0337423864        5.4433986849        2.6244230805
 H        -6.4924645041        6.7819088195        3.6784693825
 H        -5.4455491107        5.5859761516        2.9784452708
 H        -7.4802750360        9.6126141174       -4.6468673085
 H        -6.5916352044        8.3471203609       -3.7028491778
 H        -6.1034258346       10.0745726994       -3.6915406869
 H        -8.6767043454       11.2801991968       -3.9697124413
 H        -7.9419156485       11.6757092915       -2.5141108027
 H        -9.5611607189       11.1666888698       -2.4423260880
 H       -12.9712053037        3.7614489939       -2.4048538421
 H       -11.9051245410        4.5782000625       -3.3378030310
 H       -13.3506672012        5.5116940522       -3.0343459101
 H       -12.2137238330        6.4652592757        0.4649892100
 H       -13.6609937441        6.0435191045       -0.5265176013
 H       -12.4703106356        7.2187987979       -1.1923149868
 H       -11.4764247073        2.0470314284        4.6839928325
 H       -12.1563389757        3.5649251954        5.2875258408
 H       -10.7350627649        3.0029209431        6.0438188954
 H        -9.3663547776        5.0399024536        5.7390159644
 H       -10.4251146113        5.9941441201        5.0356415608
 H        -9.0027447691        5.5656985797        4.2181947000
 H        -8.4910559149       -2.8292046307        1.1976793136
 H        -9.2844416215       -2.6926332899        2.6965287858
 H        -7.7405859880       -1.6955160600        2.4385336393
 H        -9.0935932513        0.5322105934       -0.1105937378
 H        -8.7302841922       -1.1799605718       -0.6309776512
 H        -7.6119183275       -0.2072414041        0.3772718327
 H       -11.5236352093       -4.4877913117       -2.1584511504
 H       -10.1121518951       -3.3340287349       -2.3958197003
 H       -10.6848208172       -4.2974171623       -3.7785243713
 H       -12.1622747554       -1.2714283179       -4.9073368798
 H       -11.8963603879       -2.9511857609       -5.5537578603
 H       -10.5103511543       -2.1148948362       -4.8000469747
 Na       -8.6263992855        4.8272045759        1.2050428362
