117

 C       -14.8114711853        7.3686704654        0.8237723671
 C       -14.9986800961        5.8546229571        0.5146809079
 O       -15.4622380276        5.2260505165        1.4211497806
 C       -14.4412197068        5.1612687076       -0.8187281453
 C       -13.5903970299        3.8957182381       -0.4691369349
 O       -13.0415186952        3.9045511386        0.6304124263
 C       -13.5982335281        2.6302757975       -1.2821855478
 C       -14.5417933207        1.7029178433       -0.6795603587
 C       -14.0099230278        1.0743808883        0.6069258981
 O       -12.8222080919        0.8527428758        0.7024201274
 C       -15.0212988677        0.7384192836        1.8212697559
 C       -14.2339307273        0.9959078333        3.1068703049
 O       -13.4502567305        1.9516138955        3.1264070690
 C       -14.1986636446        0.0136663078        4.3031679303
 C       -12.9977397305        0.3304895700        5.2933502000
 C       -11.3944604473        0.4072292603        4.4955819329
 O       -10.9662726381       -0.5532286023        3.9665350523
 C       -10.3931820263        1.6877530079        5.0362595618
 C        -9.5525654322        2.0679777833        3.6969451712
 O        -9.7426708345        3.0829011502        2.9952957338
 C        -8.5019972823        1.0085539216        3.1286836324
 C        -8.0352750447        1.4570633487        1.7359923605
 C        -8.8745766618        0.9728944148        0.4683532373
 O        -9.9568040798        0.4222271937        0.6461402556
 C        -8.5389661590        1.5548379062       -0.9020972884
 C        -9.0296947207        3.1231154516       -0.9385193357
 O       -10.0812258898        3.4558894887       -0.3960533549
 C        -8.2532592552        4.0840780088       -1.7495663801
 C        -8.3715588385        5.5316767210       -1.3185940723
 C        -7.9972114883        6.3052997631       -2.4959476547
 O        -7.9464937549        5.7998418886       -3.6100493754
 C        -7.5698503091        7.7198270402       -2.2327104570
 C        -5.8810359709        7.5972775644       -2.3600960799
 O        -5.0978835937        7.8918538826       -1.5496815910
 C        -5.5038018329        7.2097790080       -3.7333484893
 C        -4.1848409308        6.5063498158       -4.1536228123
 C        -4.1503883898        5.0515375382       -3.7511609610
 O        -4.7255420414        4.7447751074       -2.7012144088
 C        -3.5278353184        3.9239668345       -4.7136460258
 C        -4.7745252573        3.0828496606       -5.3231475202
 O        -5.2595380509        2.1381338989       -4.7107124851
 C        -5.6374364605        3.4228480592       -6.5413894214
 C        -2.5885230518        4.4638590842       -5.7411352013
 C        -2.7963112222        2.9899621380       -3.6379195736
 C        -8.2437394193        8.6486590126       -3.1788160156
 C        -7.8541284540        8.2342217977       -0.8092263319
 C        -7.1355372148        1.1225503086       -1.3593203073
 C        -9.4227623478        0.7422349588       -1.9293670261
 C       -11.1501222237        3.0112657635        5.3927622723
 C        -9.7147808554        0.9819578664        6.2199341170
 C       -16.1952581796        1.7576715173        1.9792214552
 C       -15.7252369348       -0.6339027898        1.5278472108
 C       -15.6608718307        4.9458950916       -1.6819952179
 C       -13.4421344808        6.0282511524       -1.5749236278
 H       -15.5751521502        7.9869024160        0.3048601648
 H       -13.8125630748        7.7727567862        0.7811066493
 H       -15.1245947755        7.3371046807        1.8590410474
 H       -12.6067194871        2.2206816906       -1.4650795842
 H       -13.8907118688        2.8630298793       -2.2950451979
 H       -14.8075904545        0.9653137601       -1.4066896539
 H       -15.5352004515        2.0023308994       -0.4247758494
 H       -14.1160577884       -1.0420736933        3.9197869706
 H       -14.9520957485        0.1222209281        5.0184303837
 H       -12.9819989914       -0.3117394977        6.1545786905
 H       -13.0472710208        1.3501862143        5.5801262799
 H        -8.9496634715       -0.0089814211        3.2849045939
 H        -7.6031483428        0.9068709517        3.6115560793
 H        -7.0612006561        0.9496666723        1.6403076922
 H        -7.8811670111        2.4990719038        1.6230684786
 H        -8.5449814174        4.1882526591       -2.8445779410
 H        -7.2165665928        3.9011681096       -1.6289241572
 H        -7.6519979448        5.8099392923       -0.4899335420
 H        -9.4351975230        5.6992002965       -0.9577515351
 H        -5.5590855839        8.1383668264       -4.3234168461
 H        -6.3768257212        6.6634155876       -4.2634781170
 H        -3.2445489457        6.9917754501       -3.8320969256
 H        -3.9629263149        6.8470872830       -5.1902714223
 H        -6.4689372952        2.6344063438       -6.5067454220
 H        -5.1919556671        3.4274981557       -7.5463669696
 H        -6.1802353891        4.3797961996       -6.5130444074
 H        -2.0593151190        3.6690818621       -6.1568280442
 H        -2.0467580296        5.3210991517       -5.5498332961
 H        -3.2293746196        4.8785501564       -6.6645716959
 H        -3.5219402180        2.7358653383       -2.9356558047
 H        -2.0941044177        3.5207060701       -3.1114177261
 H        -2.3213519878        2.0187738208       -3.9152231516
 H        -8.2224473857        8.5226344470       -4.3282873458
 H        -7.8816678341        9.6341463329       -3.2034507854
 H        -9.3584356086        8.6762219295       -2.8796024189
 H        -8.7945196945        8.1872962474       -0.4421484886
 H        -7.3218313620        9.1357174576       -0.6972027300
 H        -7.2781933700        7.6193909478       -0.0990686725
 H        -7.0471361957        1.2223474740       -2.4855494964
 H        -6.8576562961        0.0916870788       -1.0726714678
 H        -6.3712914390        1.7563714977       -0.8697315813
 H       -10.4997230743        0.8938738949       -1.7225856244
 H        -9.3923626461       -0.2198966902       -1.6503928614
 H        -9.1045061071        0.9528553782       -2.8002898904
 H       -10.8397256958        3.7831785925        4.7347812207
 H       -11.1173018228        3.1957250559        6.4547680516
 H       -12.1941031135        3.0274709749        5.1544334899
 H        -9.0771564923        0.1008860075        5.8334407804
 H       -10.3695910695        0.6666560341        7.0296939595
 H        -8.9272141380        1.6597356312        6.6435076547
 H       -16.9142377513        1.4434052378        2.7541115082
 H       -16.7175850640        1.7344280947        1.0546170242
 H       -15.7594997870        2.6920792173        1.9913958138
 H       -15.0804958145       -1.4699126677        1.7195245194
 H       -15.9556361647       -0.6619162201        0.4927173282
 H       -16.5476701180       -0.7277693814        2.2782677976
 H       -15.5492659607        4.0687411134       -2.3269177213
 H       -16.0818419675        5.8500308656       -2.0914170773
 H       -16.4254519748        4.6524066911       -0.9596394666
 H       -13.8317282493        7.0747457295       -1.6008270479
 H       -13.0098694830        5.6161156435       -2.5514174675
 H       -12.5339029412        6.2506169653       -1.1401860505
 Na      -11.4949750730        2.5583846537        1.5442670932
