117

 C       -14.2449444028        7.6352497297        0.6683656414
 C       -15.0647313729        6.4275338833        0.3381067773
 O       -15.8607774883        5.9790832862        1.1349239720
 C       -14.6978967334        5.5021324190       -0.9721660384
 C       -14.0176079815        4.1569636478       -0.5986415037
 O       -13.3708521791        4.0504422732        0.4350315906
 C       -14.1465042789        3.0329016989       -1.6620055490
 C       -14.8851889247        1.8761937548       -0.8187598667
 C       -14.0261739790        1.1590322523        0.3156738715
 O       -12.8713032435        0.7962468943        0.1220772359
 C       -14.7517217960        0.8206025068        1.6776138807
 C       -13.7283892885        1.0637537348        2.7832726047
 O       -13.0039512795        2.0077183639        2.8935625020
 C       -13.7894988934        0.0784271425        3.9957132469
 C       -12.6928847848        0.3866567471        4.9237265908
 C       -11.1821735483        0.5122295809        4.6455383617
 O       -10.4558505942       -0.2063252274        3.9546446187
 C       -10.4257894428        1.9011797238        5.2344669052
 C        -9.6140628091        2.2421805653        3.8605033293
 O       -10.0235570888        2.9530273635        3.0058980197
 C        -8.2418643608        1.3983786380        3.5963698169
 C        -7.6818695944        1.4019133521        2.1320575943
 C        -8.9604598448        1.2741962804        1.1092100012
 O       -10.0015334458        0.8245810690        1.5499241779
 C        -8.6176199650        1.5355886278       -0.4399676218
 C        -9.0182233440        3.0369851214       -0.8147718023
 O        -9.9832539048        3.4952945864       -0.3126349666
 C        -8.1667052176        3.8122994875       -1.8784537999
 C        -7.9881905105        5.2956413609       -1.4975645921
 C        -8.0613885037        6.2568477842       -2.7873204035
 O        -8.7942637492        6.0055559737       -3.6758607568
 C        -7.3000422406        7.6881374817       -2.7981625629
 C        -5.7884533703        7.3863890957       -2.6797161833
 O        -5.2597868408        7.7290773995       -1.5487587441
 C        -4.8748325078        6.9012319812       -3.7202771864
 C        -3.9809423246        5.8529810586       -3.0829610491
 C        -4.6000594785        4.4655472100       -3.6167105027
 O        -5.7650985608        4.2520050298       -3.3782905795
 C        -3.8322520238        3.4540574087       -4.4620665792
 C        -4.9095880196        2.2016838228       -4.9830911020
 O        -4.7115823346        1.0859949306       -4.6119513090
 C        -5.9964271258        2.7036213998       -5.8721007214
 C        -2.8988301341        4.1416288878       -5.5228923910
 C        -2.8939417727        2.7797404767       -3.3250722120
 C        -7.5245840934        8.4654615896       -4.0861030752
 C        -7.7468504786        8.3452473868       -1.5348855193
 C        -7.0698836926        1.2611127893       -0.6910477556
 C        -9.6487185398        0.6146542866       -1.1985178023
 C       -11.1857394890        3.1137547362        5.7245324030
 C        -9.5151623577        1.3437318230        6.3330406767
 C       -15.7829930154        1.9584064340        1.9811145942
 C       -15.5173006691       -0.4943182282        1.5185782929
 C       -16.1666155927        5.3111717225       -1.5955074849
 C       -13.7115369826        6.2201945589       -1.9684125474
 H       -14.0083337361        8.2236151075       -0.1667057559
 H       -13.4640217219        7.2242079294        1.3293149003
 H       -14.8919321120        8.2614768336        1.2679673397
 H       -13.1767433036        2.9207764004       -2.0972238745
 H       -14.7719426992        3.3722005959       -2.5693655918
 H       -15.1328549348        1.0709543322       -1.4925755815
 H       -15.8776012744        2.1632884951       -0.3983351273
 H       -13.5013739224       -0.9098155609        3.6761660604
 H       -14.6273667902        0.1542733940        4.6165495293
 H       -12.5603619685       -0.3953023349        5.7055014930
 H       -13.0393934283        1.2760473288        5.5126147835
 H        -8.4444623289        0.3985012214        3.9402971035
 H        -7.6386058212        1.7165280954        4.4627359377
 H        -6.9883443854        0.6018681500        1.9380414956
 H        -7.1851677661        2.3027042406        1.9475019435
 H        -8.8047193703        3.7703795436       -2.8245029626
 H        -7.1545446377        3.4406804751       -2.1565813091
 H        -7.0868478261        5.3902274091       -0.8635641770
 H        -8.7579365132        5.7160294643       -0.7845157571
 H        -4.2515429114        7.8808169957       -3.9418792604
 H        -5.2874227523        6.6178686031       -4.6730959785
 H        -3.9708932701        5.8762786442       -1.9927656449
 H        -2.9124013789        6.0404854029       -3.2763375308
 H        -6.5794336067        3.5376933638       -5.4906707458
 H        -6.5611092357        1.8112412805       -6.2776513940
 H        -5.5279695711        3.3440833408       -6.6565408619
 H        -2.3810202292        3.4111216445       -6.1111519502
 H        -1.9417293668        4.5352536077       -5.0956880650
 H        -3.2758681918        4.8955204359       -5.9986166647
 H        -3.4264506262        2.4275990842       -2.4628225824
 H        -2.1059736560        3.4639700004       -2.9828229103
 H        -2.3566271290        2.0266212477       -3.6922803362
 H        -7.4056043466        7.8393915572       -4.9619322978
 H        -6.9362616793        9.4659286999       -4.3274200175
 H        -8.5333532091        8.7687822989       -4.2849846043
 H        -8.8026125417        8.6902979699       -1.5153687309
 H        -7.2000465668        9.2759833524       -1.4708287895
 H        -7.5961598073        7.7883011576       -0.6885132596
 H        -6.9207713135        1.0700690364       -1.7774138401
 H        -6.7139115526        0.3735309701       -0.1522788007
 H        -6.5400811036        2.1793071625       -0.3512783655
 H       -10.6218193994        0.9103239281       -1.0205027763
 H        -9.5195436977       -0.3261493896       -0.7838523386
 H        -9.3762849691        0.4779767517       -2.2165167755
 H       -10.5242257849        3.9835516860        5.9722290602
 H       -11.7003916927        2.9094132095        6.6476941672
 H       -11.9053496372        3.3916572078        4.9671257970
 H        -8.8754617105        0.5116154519        5.9853315051
 H       -10.1479290906        0.8695808457        7.1649716232
 H        -8.9208320966        2.1916812989        6.7341031143
 H       -16.0038093101        1.8783160137        2.9780878373
 H       -16.6147324454        1.7380207720        1.3541827776
 H       -15.3753849065        2.9822483671        1.8632921677
 H       -14.8526348747       -1.3725075392        1.7588678932
 H       -15.9501319846       -0.6255368828        0.5173986507
 H       -16.3461160572       -0.4824843258        2.1471792718
 H       -16.1475149535        4.7901634080       -2.5673407363
 H       -16.6177784289        6.3378974269       -1.7961401450
 H       -16.8770675320        4.8019547347       -0.9489366493
 H       -13.8966677437        7.2002364759       -2.4237633277
 H       -13.5977227841        5.6934593785       -2.8926663054
 H       -12.5876028883        6.2776914852       -1.6292926696
 Na      -11.5709145568        2.6390464135        1.1972988434
