117

 C       -14.0377587451        7.6699580998        0.6012667953
 C       -14.9312459198        6.3620724162        0.3554284489
 O       -15.9319793104        6.1083292183        0.9978453424
 C       -14.8077087901        5.6123681556       -1.0323520678
 C       -14.0505663002        4.2535509394       -0.6770906378
 O       -13.4186172007        4.2110380272        0.3280416725
 C       -14.1748808535        3.0243570959       -1.5802580517
 C       -14.9153872848        1.8587447910       -1.0211255049
 C       -14.0800939136        1.2594869566        0.1424241071
 O       -12.9784098435        0.8388855572       -0.0539956722
 C       -14.8099316892        0.9192115210        1.6465465302
 C       -13.6049391221        0.8706068686        2.8304961568
 O       -12.9214342198        1.8622971069        2.8988582706
 C       -13.6032860466       -0.1051808793        4.0072123335
 C       -12.5893568415        0.3747140117        5.1798859698
 C       -11.1623367992        0.7049628208        4.6908880879
 O       -10.5051940167       -0.0989652757        4.0699302186
 C       -10.2690962452        1.9390329324        5.2053987517
 C        -9.4982779961        2.2472184015        3.9108565414
 O       -10.1167474644        2.8299343344        3.0137866224
 C        -8.1605254505        1.6444592353        3.7086544922
 C        -7.7668503636        1.4666483766        2.2483529639
 C        -8.8950060922        1.2426349138        1.2716213139
 O       -10.0355641079        0.9257689307        1.6119469309
 C        -8.6021637867        1.5467786977       -0.2761314646
 C        -8.9361911582        3.0107970341       -0.6899936318
 O        -9.9296206471        3.6785956610       -0.2843770756
 C        -8.2324976669        3.7378365665       -1.9291486602
 C        -7.9533582955        5.2390811629       -1.5877365379
 C        -8.1260462224        6.1959476055       -2.8641460401
 O        -8.9104234214        5.8547743374       -3.7541348429
 C        -7.3237767891        7.5414157331       -2.8210134668
 C        -5.7050804834        7.3366068201       -2.5196826019
 O        -5.3488011319        7.5673856573       -1.4252874365
 C        -4.7745819575        6.8479431835       -3.6555420908
 C        -4.0053900987        5.6135702882       -3.0316414168
 C        -4.6740406537        4.3051481644       -3.7038541765
 O        -5.8793599285        4.2904984974       -3.5935364754
 C        -3.7545393432        3.2498907582       -4.3564086952
 C        -4.7106832480        2.2124313265       -4.9261186976
 O        -4.6388724836        1.0587754773       -4.5659045928
 C        -6.0829976327        2.5752370371       -5.7027232334
 C        -3.0194232932        3.8290090021       -5.4869613747
 C        -2.8235643435        2.6168754255       -3.2527650119
 C        -7.4261366994        8.2377771549       -4.1750203921
 C        -7.8744559033        8.4312333369       -1.6522737159
 C        -7.1616813090        1.5027949687       -0.6224332372
 C        -9.6235211978        0.7772080788       -1.2698668440
 C       -11.0704028720        3.1272879800        5.6912977346
 C        -9.5486662974        1.3357266633        6.4872233718
 C       -15.7244374567        2.0973350764        1.9702079028
 C       -15.3854344682       -0.4584421223        1.5263581784
 C       -16.2009684134        5.4330744039       -1.6435392810
 C       -13.9499174358        6.4482083135       -1.9841000559
 H       -13.7862297751        8.2383276611       -0.3143341358
 H       -13.2609461527        7.2374222861        1.2621214184
 H       -14.6337287818        8.3866766881        1.1419934995
 H       -13.1288929838        2.7034064655       -2.0038757297
 H       -14.7163696312        3.3000405149       -2.4842563121
 H       -14.9119021760        1.1602269697       -1.9085850729
 H       -15.8702291367        1.9960172376       -0.6482943095
 H       -13.3148265966       -1.0863736421        3.7998152779
 H       -14.6249483679        0.0229378558        4.4863130599
 H       -12.4104047345       -0.4119700370        6.0198126437
 H       -13.1295575559        1.2872236431        5.7010391969
 H        -8.1197521797        0.8107288530        4.3734107470
 H        -7.4145849615        2.3535419555        4.3011939419
 H        -7.0410691484        0.7781973750        2.0791817886
 H        -7.3318236704        2.4001297143        1.9468691044
 H        -8.9627408624        3.7792073217       -2.7517608238
 H        -7.2695468311        3.2547030304       -2.3691741623
 H        -6.9329309247        5.3682107687       -1.2439171027
 H        -8.4676724957        5.6222079785       -0.7510166652
 H        -4.0086535028        7.6194720532       -3.8824521840
 H        -5.1983942799        6.5629745888       -4.6095197875
 H        -4.2466180186        5.4333115668       -1.9571293737
 H        -2.9341283335        5.7744783455       -3.0335715663
 H        -6.6399882026        3.4443612130       -5.4386287561
 H        -6.5627815204        1.6178674200       -5.6951202964
 H        -5.8807136473        2.9603389688       -6.7374558375
 H        -2.1922474371        3.2284496405       -5.8453601136
 H        -2.5253343951        4.7634516493       -5.4455643261
 H        -3.8388025360        3.9306515250       -6.2609238339
 H        -3.3205948944        2.0893839638       -2.5337980279
 H        -2.1515040111        3.3411520082       -2.7915119214
 H        -2.1015056118        1.9747897673       -3.7894944853
 H        -7.1024824483        7.7166742030       -5.0694286129
 H        -6.9821068639        9.1876133703       -4.1741185519
 H        -8.3978022773        8.4660079473       -4.4629106201
 H        -8.8862491283        8.8697617883       -1.8258148535
 H        -7.3371030230        9.3516420995       -1.6772228882
 H        -7.8687295217        7.9762079020       -0.5714969398
 H        -6.9572335764        1.7338795481       -1.6657713654
 H        -6.6233516071        0.5514470313       -0.2930996394
 H        -6.7841369927        2.3574586336       -0.0070075234
 H       -10.4369725586        1.6661367579       -1.2843363637
 H       -10.1034632353       -0.1404706017       -0.8632033416
 H        -9.2171277276        0.4814916745       -2.1948645235
 H       -10.4254364084        3.9707303129        5.7763580052
 H       -11.2935291284        3.0038260036        6.7172088075
 H       -12.0124458814        3.3732360976        5.1239517962
 H        -9.1033000579        0.3138649302        6.3112923146
 H       -10.2831535003        1.1766196815        7.2109072673
 H        -8.7551307222        2.1011544833        6.8973051435
 H       -16.1134972316        1.9293163872        2.9616073974
 H       -16.4794597864        2.2167513532        1.2334906911
 H       -15.0791877980        3.0022137440        2.1743799340
 H       -14.6573666439       -1.1315223386        1.7557915601
 H       -15.8190793253       -0.6498200743        0.5549169932
 H       -16.2821632465       -0.6042684311        2.1835635533
 H       -16.2430281325        5.4517214905       -2.7444211078
 H       -16.9271268326        6.1191313242       -1.2943243589
 H       -16.5526862133        4.4217709222       -1.3186653112
 H       -14.1275151264        7.3707159764       -2.3567968554
 H       -13.9652178458        5.9351419566       -2.9698848471
 H       -12.9024298426        6.3914738104       -1.7220070111
 Na      -11.6910450794        2.7156106910        1.0003501161
