117

 C       -13.7858440294        7.4446117105        0.7208686069
 C       -15.0178502209        6.6377239314        0.2136995763
 O       -15.9291997827        6.4390955556        0.9822371086
 C       -14.9769833814        5.7979323260       -1.1745406119
 C       -14.0985782471        4.4764961900       -0.8223402619
 O       -13.3503841837        4.4783837064        0.1772227767
 C       -14.2741925805        3.1317621495       -1.6838854321
 C       -14.9554156999        1.9352312529       -0.8678751211
 C       -14.0213607193        1.2983162055        0.2487825344
 O       -12.8984305126        0.9606537674       -0.1575082815
 C       -14.5449536946        0.9685158671        1.6176060230
 C       -13.3186848736        0.9286734077        2.6453969606
 O       -12.5106844503        1.8327238899        2.7308684151
 C       -13.4073378044       -0.0787003140        3.8686648964
 C       -12.8296716923        0.5394930361        5.1099562068
 C       -11.2752925252        0.6517263315        4.9224126000
 O       -10.7218224267       -0.1919613005        4.2424461947
 C       -10.2975582895        1.9073816352        5.3542753641
 C        -9.6029044595        2.3849778639        4.0492348088
 O       -10.0193837974        3.1957268267        3.2875705973
 C        -8.1392040590        1.9591267337        3.7779140510
 C        -7.8115781334        1.7820373704        2.2403611687
 C        -8.9364914869        1.5522877018        1.1764431564
 O        -9.9508888851        0.9500122831        1.4439737861
 C        -8.6042672735        1.8146962960       -0.2277358442
 C        -9.0499257940        3.2936823751       -0.6017207261
 O        -9.8648182209        3.8571904911        0.0207873903
 C        -8.5997782695        3.8859632374       -1.8701118688
 C        -7.8605331465        5.1729316007       -1.6391965754
 C        -8.0381882765        6.0483153644       -2.9003699716
 O        -8.8248815480        5.8161904831       -3.7575571353
 C        -7.2551670790        7.4539147470       -2.9567877322
 C        -5.8353967948        7.0698975531       -2.3381975572
 O        -5.6834343107        7.2502435300       -1.0798638940
 C        -4.6077257481        6.7845503290       -3.2969076780
 C        -3.9022412406        5.4725643242       -3.1568715639
 C        -4.6888621309        4.3008252491       -3.7324221791
 O        -5.9060227453        4.3373049779       -3.6101570716
 C        -4.0290689758        2.9262459068       -4.2956070429
 C        -4.7737119041        1.6952805848       -4.8220829034
 O        -4.5165316619        0.6091462654       -4.3790216045
 C        -5.9078229821        1.9228041887       -5.8251127875
 C        -3.2722328519        3.4814051009       -5.5358861912
 C        -2.8214246009        2.4557390863       -3.2370238753
 C        -7.3211474267        7.9029508519       -4.4376436108
 C        -8.0777163813        8.3516725079       -2.0712188756
 C        -7.0828475856        1.3173205104       -0.4493223709
 C        -9.3790581035        0.8877131292       -1.1721654174
 C       -11.1736478349        3.1059689371        5.6925839695
 C        -9.3715678246        1.5256905993        6.4475938031
 C       -15.5808092278        2.0636397138        2.0976741820
 C       -15.3932780193       -0.3613678836        1.5450374771
 C       -16.4494313964        5.4262712094       -1.7313507229
 C       -14.1130674389        6.5548284668       -2.3165868915
 H       -13.7122081503        8.1914204909       -0.0430252911
 H       -12.9875283415        6.7300589597        0.9099238647
 H       -14.1093127131        8.0719140786        1.5667089150
 H       -13.3617240993        2.7371940551       -2.0591345893
 H       -14.9338147378        3.3885210281       -2.5591371572
 H       -15.0586079146        1.1454459295       -1.5996519995
 H       -15.9791462971        2.3099235405       -0.4124909835
 H       -12.6330698087       -0.9717254286        3.7892418372
 H       -14.3534222702       -0.4403583839        4.2430157661
 H       -13.1186580625       -0.1869775685        5.8051534912
 H       -13.3075368384        1.4144509585        5.3828498377
 H        -7.7517256480        1.1782100681        4.5016584781
 H        -7.5447453686        2.7847254078        3.9914899617
 H        -7.1490506025        0.7887936625        2.2234574787
 H        -7.0457978193        2.5666887448        1.9514938608
 H        -9.3838294168        4.1922138740       -2.5751894556
 H        -8.0753758833        3.1264868130       -2.3868579422
 H        -6.8052399067        5.0719699662       -1.4139682885
 H        -8.1925554917        5.6783261052       -0.7149039815
 H        -3.7989312379        7.5155797641       -3.0821901639
 H        -4.9960085969        6.9110445812       -4.3055171130
 H        -3.9408016865        5.2168609358       -2.0493307675
 H        -2.7946480408        5.4216547933       -3.4836685240
 H        -6.0400272924        2.9897967205       -5.7399381921
 H        -6.7799019368        1.4182364323       -5.4141988636
 H        -5.7980410846        1.8777534079       -6.8554077295
 H        -2.1387671365        3.3992162543       -5.4897847883
 H        -3.3794334859        4.6454305368       -5.5689762626
 H        -3.6315062078        3.1758889304       -6.4295660247
 H        -3.3209124878        1.9211704995       -2.3323430047
 H        -2.2461277578        3.3258523658       -2.7914181869
 H        -2.0590322805        1.8178886807       -3.6491912707
 H        -6.8222405380        7.2672101892       -5.1309288081
 H        -6.9197960972        9.0150719280       -4.5401746869
 H        -8.3223084515        7.9946486183       -4.8689401183
 H        -9.1057220688        8.4582543739       -2.4523645165
 H        -7.8686798877        9.4620431239       -2.0588511958
 H        -8.0859280892        7.9655766540       -1.1270007731
 H        -6.8978956084        1.4483922055       -1.5345064110
 H        -6.8831861159        0.3390472022       -0.0409439288
 H        -6.4052890037        2.0671800934       -0.0040413574
 H       -10.0645360926        1.5162895139       -1.6806663611
 H        -9.8349318130        0.0274914862       -0.6413973117
 H        -8.6453848774        0.3667506754       -1.9182341929
 H       -10.5946822759        3.9808559275        6.0770421552
 H       -11.8751029052        3.0322668813        6.5426110361
 H       -11.7498452654        3.2245062690        4.8171484176
 H        -8.9625942982        0.6000041851        6.1918879814
 H        -9.9719874950        1.4049942181        7.4052982202
 H        -8.6578197195        2.2455787379        6.5806733721
 H       -16.1084964326        1.7372612125        2.9949743095
 H       -16.2881412883        2.1540199812        1.2257404378
 H       -15.1002158609        2.9777120135        2.4175102774
 H       -14.8153857343       -1.2596918829        1.0937110823
 H       -16.3628438415       -0.1564752782        1.1094963304
 H       -15.6841446831       -0.6244580406        2.5148657371
 H       -16.8175598249        6.1724693973       -2.4133948681
 H       -17.2423004193        5.4204403605       -0.9414068826
 H       -16.4275053028        4.4637675809       -2.1524531108
 H       -14.6242952368        7.4338690598       -2.7655858638
 H       -13.9818948686        6.1167210212       -3.2413844527
 H       -13.1281902734        7.0149305823       -1.9363889017
 Na      -11.7676274190        2.7135134620        0.8672150096
