117

 C       -13.6812471443        7.3651590923        0.5556192938
 C       -14.9596144214        6.7368099639        0.0789400469
 O       -15.9647890517        6.9915128955        0.7120038604
 C       -14.9479153507        5.7072213171       -1.1133554533
 C       -14.1238194998        4.5049852481       -0.8932186421
 O       -13.1092172827        4.4727472353       -0.1991912017
 C       -14.4205069639        3.2290198743       -1.6939435297
 C       -15.2141748132        2.1920026711       -0.7634469158
 C       -14.1284710304        1.5363846805        0.2182331784
 O       -13.0017395756        1.4363867481       -0.2625025759
 C       -14.5143938017        1.0811652219        1.5873216169
 C       -13.2607094585        0.8319407603        2.6971499139
 O       -12.3617977388        1.6460321301        2.5683164741
 C       -13.4614593837       -0.0865212456        3.9006200119
 C       -12.7650901612        0.6697381028        5.1133271302
 C       -11.2479434411        0.7753512164        5.0604871465
 O       -10.4999788110       -0.1140785512        4.7551770689
 C       -10.5058387274        2.0704566329        5.4154466842
 C        -9.8662670192        2.6788508575        3.9755918649
 O       -10.2653608791        3.6629417644        3.4093208073
 C        -8.5708110514        1.8062288953        3.7162576340
 C        -7.8664911571        2.2501202972        2.3726484428
 C        -8.8385538871        1.6560979159        1.2231315194
 O        -9.8597212745        1.1222219350        1.4921123441
 C        -8.5392997411        1.7394121928       -0.2574042659
 C        -9.1230806905        3.3460114052       -0.5380430597
 O        -9.5086303073        3.9940109516        0.3905332427
 C        -8.9351825426        3.8402318304       -1.9556115354
 C        -8.1378509974        5.0927487806       -1.8669451807
 C        -8.1412909764        5.9159560184       -3.1113668878
 O        -8.7989215557        5.6739599489       -4.0835602914
 C        -7.0725984506        7.1328522617       -3.1728855845
 C        -5.7413839395        6.8632411681       -2.2851561528
 O        -5.8447739066        6.6625862234       -1.1163244756
 C        -4.3992527697        6.5998013721       -3.1079621760
 C        -4.0765863898        5.0559230263       -3.1477478569
 C        -4.9436832420        4.0241794962       -3.7515980407
 O        -6.1933158261        3.9976839499       -3.7322625713
 C        -3.9798669875        2.8192862363       -4.2717539233
 C        -4.8233787127        1.4962390401       -4.5548765821
 O        -4.6766516898        0.5964841636       -3.7468077063
 C        -5.6821656284        1.3281770462       -5.7570496633
 C        -3.2576878262        3.2351602929       -5.7210972869
 C        -2.8904669800        2.4988052111       -3.1763966014
 C        -6.7966760766        7.5824777040       -4.5724549409
 C        -7.6742136728        8.4179489840       -2.5743137589
 C        -7.0645520308        1.6522755506       -0.7170582956
 C        -9.3470604580        0.6493873038       -0.9406652017
 C       -11.3563717790        3.0966632417        5.9668469968
 C        -9.4086953155        1.6583275450        6.4655089212
 C       -15.5000082366        2.1424566383        2.2766952311
 C       -15.2430759028       -0.2319334349        1.2603593749
 C       -16.4169534414        5.3109262140       -1.5092497452
 C       -14.3405275601        6.4638763762       -2.3265007076
 H       -13.7904570528        8.4575680583        0.4586158237
 H       -12.8973286989        6.8260898777        0.0915559839
 H       -13.7049374954        7.1384436170        1.6467523830
 H       -13.4049817815        2.7486148406       -1.8339406636
 H       -15.0414111076        3.4311048577       -2.5817916374
 H       -15.5103358817        1.3401673507       -1.3487704650
 H       -16.0877958411        2.7838728629       -0.3141338714
 H       -13.0352570341       -1.1028195310        3.6914176671
 H       -14.5381245517       -0.3014731900        4.0437564190
 H       -12.9944052665        0.0102253870        6.0592103144
 H       -13.3690654710        1.5898618331        5.3058698790
 H        -8.8505743803        0.6834382165        3.6091363044
 H        -7.8496986255        2.0098850990        4.5481867495
 H        -6.8330316335        1.9529838444        2.3261924394
 H        -7.8112908286        3.2657921850        2.2352287835
 H        -9.9123018615        3.6677647350       -2.4548475137
 H        -8.3939886155        3.1307878027       -2.4765429032
 H        -7.2180879719        4.7561849549       -1.4203499775
 H        -8.4655834183        5.7711144415       -1.1081970045
 H        -3.5875185645        7.0279164335       -2.6685931101
 H        -4.4918272813        6.8531192552       -4.1617618039
 H        -4.0695819520        4.7451686660       -2.1010527485
 H        -3.1719055295        4.8980682890       -3.8043287289
 H        -5.8270646814        2.2858462333       -6.3446499652
 H        -6.6836542977        1.1069874339       -5.3192434699
 H        -5.3141700764        0.6342649348       -6.4828068922
 H        -2.1773005579        3.2335420315       -5.5317007845
 H        -3.5779711562        4.2195418231       -6.1576457504
 H        -3.2409986913        2.4788099865       -6.4145709274
 H        -3.2821260608        2.5033682268       -2.1385750277
 H        -2.1594777001        3.2721276124       -3.1863415362
 H        -2.4082812987        1.5702071099       -3.3841064621
 H        -6.4051312052        6.8834446413       -5.1615990216
 H        -6.0101813999        8.3428574198       -4.5173162327
 H        -7.6121214174        8.0180688405       -5.0988454114
 H        -8.7362331192        8.5787932972       -2.9109338352
 H        -7.2181246899        9.4703764561       -2.8726687899
 H        -7.6541786865        8.4138587959       -1.5046503785
 H        -7.0155046352        1.6385450800       -1.8676180756
 H        -6.8274412628        0.6764975052       -0.2464943891
 H        -6.3985680662        2.4661070951       -0.3840687747
 H       -10.3436796270        0.8234723050       -1.2284274521
 H        -8.9370849460       -0.3472684514       -0.4915622222
 H        -8.9221680086        0.5917072809       -2.0878809711
 H       -10.7645925925        3.9558301933        6.2745169056
 H       -12.0014162657        2.8548801877        6.8219996692
 H       -12.0449617530        3.3656507516        5.2258831382
 H        -8.8091373434        0.8267207852        6.0410750549
 H       -10.0688152583        1.3133769887        7.3740297281
 H        -8.8247199238        2.4814301874        6.7869978621
 H       -15.4124233433        2.0414225206        3.4084685892
 H       -16.5950378105        1.9668136248        2.1260640832
 H       -15.2120726789        3.1067947014        1.9839764970
 H       -14.5185008890       -1.0069824935        0.8269082351
 H       -15.8811775618        0.0197484273        0.4402733744
 H       -15.8033558871       -0.7047658650        2.0379050929
 H       -17.0966502852        5.6984775063       -0.7392242676
 H       -16.7141910809        4.2620814379       -1.5621555190
 H       -16.5929214654        5.7308144434       -2.4869371644
 H       -14.7761780016        7.4627586561       -2.3686157192
 H       -14.4820935415        6.2064551106       -3.3255709975
 H       -13.2968530669        6.7187899081       -2.1794574939
 Na      -11.4226957508        3.0779850122        0.9897130657
