117

 C       -13.1900206248        7.6578869090        0.1442611046
 C       -14.6028779256        7.0212866335       -0.0179910925
 O       -15.5365891291        7.5186586724        0.5940975290
 C       -14.9129032009        5.8941534798       -1.0955212405
 C       -13.9607711118        4.5554883612       -0.7969371639
 O       -13.2060420987        4.5977837745        0.1361667797
 C       -14.2773034130        3.3383989110       -1.6252909127
 C       -14.8965841069        2.3668732757       -0.6590712655
 C       -13.9455254097        1.7344611805        0.3632195960
 O       -12.7559730997        1.6494968586        0.1647560844
 C       -14.4812929195        1.1475946908        1.7356734110
 C       -13.3764510662        1.1597471769        3.0153131600
 O       -12.7074224454        2.1524924305        3.0622539336
 C       -13.5429491136        0.1229482440        4.0941392666
 C       -13.1269401157        0.6543017291        5.4799675429
 C       -11.6606949631        0.9767473832        5.3921607253
 O       -10.9217137872        0.1162677978        4.9837524701
 C       -10.9032170490        2.4261712391        5.5416884543
 C       -10.0933929363        2.8575136705        4.2597064324
 O       -10.4148637103        3.8647564867        3.6822965617
 C        -9.0768755804        1.8988717829        3.6274492751
 C        -8.3009391188        2.4536038285        2.3930572416
 C        -9.0871256533        1.9482016481        1.1761368160
 O       -10.0371763315        1.2747110295        1.3305511649
 C        -8.5171024780        2.2921753721       -0.2225546747
 C        -9.1382949515        3.6093890999       -0.8583963873
 O       -10.2569723361        4.0354690283       -0.5045745552
 C        -8.3841825802        4.1302367561       -1.9876797235
 C        -8.9301928440        5.3980951808       -2.5874416551
 C        -8.1663326178        5.8144580463       -3.8691158405
 O        -8.4742775907        5.4695679575       -4.9814255945
 C        -6.7922432871        6.6239886080       -3.8582103435
 C        -5.7032199694        5.9056145378       -2.8480561206
 O        -6.0192993344        5.4623714399       -1.8240339999
 C        -4.1897382365        6.0894790139       -3.2596497146
 C        -3.5765111839        4.6308050001       -3.1775344751
 C        -4.4370459274        3.5682834811       -3.9550619028
 O        -5.5912934897        3.8336707612       -4.3502733760
 C        -3.7744083509        2.0409932162       -4.0407292276
 C        -5.1607438409        1.2599876122       -3.7579336044
 O        -5.6624997617        1.3077984809       -2.6645358357
 C        -5.7039525080        0.4363261692       -4.8867322327
 C        -3.1769730824        1.9483590950       -5.5392873876
 C        -2.6676253962        1.7594984904       -2.9981366443
 C        -6.2500857543        6.6607109856       -5.2865808124
 C        -6.9086093749        8.1731589268       -3.3109827760
 C        -6.9316179887        2.2911710376       -0.1522783520
 C        -8.9691577717        1.2711183012       -1.3840011559
 C       -11.6773314915        3.6300010978        6.2674548418
 C        -9.6903142919        2.0659429440        6.5720480460
 C       -15.7146664096        1.8056497024        2.1847146303
 C       -14.6213321181       -0.3946391447        1.3970135410
 C       -16.4007473588        5.4697969525       -0.9765386143
 C       -14.5012559158        6.4119717630       -2.4562100589
 H       -13.1765196260        8.7200766591       -0.2520108474
 H       -12.4073200309        7.1505929233       -0.4237415401
 H       -13.0486065402        7.5038219273        1.2527780772
 H       -13.4166733494        2.7358094023       -1.9573336051
 H       -14.9584109798        3.5601319912       -2.4160780758
 H       -15.4866120687        1.5806127980       -1.1461499054
 H       -15.7288148994        2.9138838757       -0.2130347022
 H       -13.1090098000       -0.8082398272        3.7999779806
 H       -14.6136028489       -0.2315424503        4.0874759640
 H       -13.3721461539       -0.1957592599        6.0947275042
 H       -13.7247468039        1.4687201918        5.7038339118
 H        -9.7718641116        1.1495123334        3.2815025643
 H        -8.3258180602        1.6103752814        4.3196980132
 H        -7.1640222538        2.2016542684        2.3985813354
 H        -8.3030361581        3.5579314207        2.2045156576
 H        -8.1598067473        3.3306969100       -2.7783362617
 H        -7.4007154681        4.4467819590       -1.7049254310
 H        -8.7070527902        6.1782569602       -1.8226083895
 H       -10.0189525367        5.5069610884       -2.7713513476
 H        -3.5982775175        6.8375470375       -2.6467933305
 H        -4.0801969958        6.5082068102       -4.3550905104
 H        -3.6734924673        4.3117201110       -2.0672680137
 H        -2.6492233094        4.6741512977       -3.7617022565
 H        -6.2733274699        0.9289490815       -5.6661567732
 H        -6.3711741316       -0.3724159313       -4.6643027852
 H        -4.8615375510       -0.0473211575       -5.2092273172
 H        -2.0406200373        2.0496731876       -5.4502977251
 H        -3.6671078507        2.7748396841       -6.1600254215
 H        -3.4107473640        1.0684959978       -5.9893427255
 H        -3.2474065398        1.6934010392       -1.9886589296
 H        -2.0032134438        2.6778322674       -2.9531840468
 H        -2.0917844595        0.8585660642       -3.1795334081
 H        -5.9704537969        5.6203073701       -5.5834613505
 H        -5.3086592235        7.4232328846       -5.3576069774
 H        -7.0885624496        6.9267582077       -5.9556873501
 H        -7.8673573090        8.6791717998       -3.3888496441
 H        -6.0522778812        8.7221663791       -3.7939217490
 H        -6.7153124867        8.2127332550       -2.3084568113
 H        -6.6244255995        2.2413017104       -1.2212906965
 H        -6.5865480795        1.3868114826        0.3492565870
 H        -6.6068750520        3.1438643643        0.4348691475
 H        -9.8519153710        1.3558676489       -1.9381139570
 H        -9.1344791764        0.4240913368       -0.8142065358
 H        -8.1848737430        1.1046878040       -2.0384183932
 H       -11.2013415238        4.6206500632        6.2425119802
 H       -11.8536640769        3.1914826218        7.2943998675
 H       -12.6563893426        3.8381580062        5.8256269853
 H        -9.3654385239        1.0717701876        6.4471780045
 H       -10.0535621262        2.2824543862        7.6147225355
 H        -8.9654250216        2.7237587187        6.3637735608
 H       -16.0472738034        1.5270745562        3.2372301871
 H       -16.5169172291        1.7359293404        1.4312125095
 H       -15.5870167819        2.8591097524        2.1490311537
 H       -13.6632235714       -0.8096282672        0.8885332125
 H       -15.4276815517       -0.6989538086        0.7569927176
 H       -14.7647334099       -0.9659097010        2.3110517772
 H       -16.6007518399        5.4905856125        0.0832421502
 H       -16.7393225832        4.5797912540       -1.4680858600
 H       -17.0409911182        6.2801890680       -1.2690787284
 H       -14.7678893489        7.4488059162       -2.8468546550
 H       -14.5557666052        5.7043651038       -3.2580257050
 H       -13.3394467667        6.4761276589       -2.4178695018
 Na      -11.6355236300        3.3933975412        1.4031672082
