117

 C       -13.1553081480        8.3477317621       -0.4112191887
 C       -14.3038638373        7.5512428946        0.0272207155
 O       -15.0531332165        7.7803179165        0.9330792827
 C       -14.6693544025        6.0680034467       -0.9731162929
 C       -13.9673849594        4.8876282604       -0.2454973536
 O       -13.4694464164        5.1072768452        0.8956772136
 C       -13.8294506303        3.4520669665       -0.9796926356
 C       -14.7515099333        2.4301428928       -0.2916115680
 C       -14.0050007624        1.4030872131        0.5748243743
 O       -12.7806518850        1.1589115281        0.3697800880
 C       -14.7596635326        0.7148544709        1.7161831749
 C       -14.0524188569        1.2777950385        3.0215808702
 O       -13.4170188819        2.2967229461        3.0297191716
 C       -14.1156623610        0.5116551190        4.4294354224
 C       -13.4043847305        1.2679166017        5.6789129412
 C       -11.8855629587        1.3044838466        5.4612372819
 O       -11.1263512505        0.3617284530        5.2623150905
 C       -11.0395182304        2.7295046909        5.5607648833
 C       -10.4503109878        3.0294513012        4.2734441593
 O       -10.9114178781        3.9116639011        3.5799420553
 C        -9.2436033962        2.1932262815        3.7460399473
 C        -8.4592377111        2.6863388079        2.5223868862
 C        -9.0437073331        2.1030902243        1.2226836920
 O       -10.1794331512        1.5962453306        1.2829137562
 C        -8.4173355441        2.4194648277       -0.1612102763
 C        -9.0109624823        3.5909264177       -1.0307098237
 O       -10.0513594360        4.1262274636       -0.7375144270
 C        -8.1488270756        3.9739872261       -2.2911160693
 C        -8.5810270911        5.3046195065       -2.8686195733
 C        -7.7981640429        5.5995264095       -4.1855637445
 O        -8.3023391953        5.1881535999       -5.2065177353
 C        -6.4874556830        6.5122179084       -4.3167939125
 C        -5.2927802546        5.8469415331       -3.4679006714
 O        -5.5666491599        5.6299360220       -2.2970383844
 C        -3.9455954843        5.6995120882       -4.1057940267
 C        -3.2873588501        4.3480413724       -3.7292850062
 C        -4.2377104175        3.1809407030       -4.0728374243
 O        -5.2882491479        3.4218666100       -4.5369918889
 C        -3.8523396905        1.6563300545       -3.7539345522
 C        -5.1626451365        0.7394216134       -3.4428770534
 O        -5.9015685972        0.9734164377       -2.4869064480
 C        -5.7809401402       -0.2753029278       -4.4025459945
 C        -3.0650686766        1.2907515292       -5.1224392817
 C        -2.8840861910        1.3230460098       -2.6230901529
 C        -6.1292288035        6.7937262453       -5.8324946157
 C        -6.8863400510        8.0519997663       -3.8539016551
 C        -6.8571713640        2.7641923332        0.0578652994
 C        -8.5304760380        1.1600564356       -1.0084788867
 C       -11.8813928722        3.9676071914        6.1109035724
 C        -9.8730281377        2.2914224221        6.5156795723
 C       -16.2365793785        1.0058952317        1.7665839168
 C       -14.4781869394       -0.7413431249        1.6861522396
 C       -16.2007740479        5.8023794361       -0.8894341671
 C       -14.3236991037        6.1666455983       -2.4854487282
 H       -12.5870774084        7.8120273802       -1.1632992434
 H       -12.4646720357        8.5052526596        0.4895875849
 H       -13.6977394655        9.2880456617       -0.5913791429
 H       -12.8299575564        3.1419464194       -0.8904202437
 H       -13.9453337183        3.4496618115       -2.1086966405
 H       -15.5471771290        2.1225111498       -0.8832545667
 H       -15.3319238810        3.0871862597        0.4715201624
 H       -13.6913430351       -0.5036712629        4.3297524661
 H       -15.1466232082        0.3614418717        4.5162064839
 H       -13.5536568076        0.8094995175        6.6347644331
 H       -13.7757895176        2.3251908624        5.6795706604
 H        -9.8348489732        1.3527234177        3.2880700909
 H        -8.5314389354        1.8910677458        4.4313788430
 H        -7.4844817206        2.2164630718        2.4918502958
 H        -8.3647881857        3.8042160445        2.5960390904
 H        -8.0421677276        3.1075508213       -3.0340679669
 H        -7.1443158865        4.2592179381       -1.9709385258
 H        -8.3330990437        6.1144808860       -2.1286230280
 H        -9.6612539328        5.2940755401       -2.9973994862
 H        -3.1477024484        6.5355168498       -3.8932711128
 H        -3.9192967117        5.8301320563       -5.1637841248
 H        -3.0172918430        4.3466513896       -2.6730720453
 H        -2.5139357378        4.2010353496       -4.5526234544
 H        -5.2754605381       -0.5804836449       -5.2590079354
 H        -6.7592750224        0.0895927791       -4.6421348397
 H        -6.1534460270       -1.1513504282       -3.8692667320
 H        -2.5228745661        2.1744218604       -5.3237946260
 H        -3.6696782496        1.0694537607       -5.9671258231
 H        -2.5820823206        0.2367756457       -4.9895534695
 H        -3.5102298490        1.4143691605       -1.7070203116
 H        -2.0490895849        2.0412162293       -2.5383144901
 H        -2.2977520833        0.3362719635       -2.7388992097
 H        -5.7449740881        5.7781454899       -6.1746505358
 H        -5.5521471618        7.7037483895       -5.9896197526
 H        -7.1663872867        6.9535306171       -6.4145339962
 H        -6.5392062878        8.6960401194       -4.6093249050
 H        -6.3638246982        8.3587260181       -3.0193610896
 H        -7.9835849187        8.1418008392       -3.5746424124
 H        -6.5346963761        2.8170365282       -0.9772883572
 H        -6.3143579915        1.9205819237        0.4697521600
 H        -6.8242001207        3.7702778545        0.5258155105
 H        -9.3753119225        0.6896443063       -0.7877191981
 H        -7.7435053779        0.4681757818       -0.9944008439
 H        -8.5408425411        1.2986128047       -2.0682174716
 H       -11.7623609172        4.1401101259        7.1884146107
 H       -12.9224088453        3.8016523461        5.9677533790
 H       -11.6028961382        4.8178136883        5.5008056670
 H        -9.0530988133        1.7403784717        6.1161550058
 H       -10.2301416634        1.6782966898        7.2092637709
 H        -9.5639897757        3.2554172139        6.9753554620
 H       -16.6421989046        0.4156711702        2.5508169692
 H       -16.8232166454        0.7160814669        0.8758018125
 H       -16.4956883348        2.0271403246        2.2203563803
 H       -13.4858609927       -0.9941423935        1.5541761490
 H       -15.2040179249       -1.2387547794        0.9760365049
 H       -14.8770857753       -1.2077357939        2.6034939632
 H       -16.5068531770        5.4217318040        0.0716959512
 H       -16.5434362624        5.0856290163       -1.6684230785
 H       -16.7093793757        6.7273706153       -1.0665848492
 H       -14.4292187667        7.1777191510       -2.9844798360
 H       -15.0964032599        5.5371210762       -3.0934250480
 H       -13.3263761547        5.8679307799       -2.7540434741
 Na      -11.8297033019        3.6636037727        1.2307005864
