117

 C       -13.1416820603        8.4499326884       -0.5410930504
 C       -14.3265822111        7.5084432779       -0.1412637270
 O       -14.9679488991        7.6848776519        0.8603660424
 C       -14.6530561769        6.1888679501       -0.9326211312
 C       -13.8776788662        5.0146326101       -0.1996647400
 O       -13.4839880087        5.0493614997        0.9239300380
 C       -13.8180467382        3.6736919223       -0.8349801359
 C       -14.7627170619        2.6342555343       -0.1141212146
 C       -13.9838155593        1.4656152016        0.6978946403
 O       -12.8911737358        1.1830084580        0.4327378208
 C       -14.7769716209        0.6571582048        1.9157887050
 C       -14.1001991902        1.3214329979        3.1835742392
 O       -13.4925371898        2.3762254349        3.0790757443
 C       -14.0658449900        0.5324742318        4.4810013804
 C       -13.4623467722        1.4686184431        5.4701559621
 C       -11.9127267819        1.3700873334        5.3752205644
 O       -11.4009377743        0.3229728960        5.2573542517
 C       -11.0943789284        2.7395810958        5.5301421376
 C       -10.5958603844        3.0307879767        3.9912334901
 O       -11.0635152080        3.9956902946        3.3903621535
 C        -9.3339204843        2.2016767535        3.6829801772
 C        -8.4705334447        2.7590709325        2.6002012212
 C        -9.0048377313        2.3747040085        1.2273365912
 O       -10.1065165469        1.8002554446        1.2574944498
 C        -8.2488418006        2.5023289666       -0.0945974648
 C        -8.8931468884        3.5919247615       -0.8913111385
 O       -10.0068761100        3.9957581592       -0.6591961459
 C        -8.2257028152        3.8948179301       -2.3449172966
 C        -8.3232535452        5.3507723191       -2.8703844156
 C        -7.7003947765        5.5778697064       -4.3077713034
 O        -8.1937381158        5.1444968329       -5.3144949764
 C        -6.5037635988        6.5912084668       -4.4471652812
 C        -5.3019978436        5.9449648057       -3.7021490622
 O        -5.5345936534        5.6545101195       -2.4667021373
 C        -3.9466771949        5.5527016246       -4.3010527745
 C        -3.4135187875        4.2172234900       -3.5884987470
 C        -4.3327828667        2.9749921907       -3.9885339381
 O        -5.4436858174        3.1123171293       -4.5013563790
 C        -3.8277580962        1.5304608722       -3.7445519123
 C        -5.1912984397        0.7595343373       -3.5260474672
 O        -5.7241215422        1.0636386588       -2.4785501916
 C        -5.7068829491       -0.3392476810       -4.4707189522
 C        -3.0929724330        1.0577266397       -5.0562740982
 C        -2.8784959612        1.4583243378       -2.5716062018
 C        -6.2301936395        6.6766382297       -5.9655298741
 C        -6.8361093394        7.9191672148       -3.7786855148
 C        -6.7055734548        2.7586028243        0.3948741483
 C        -8.6114060518        1.2069234314       -0.9763410669
 C       -11.8436680558        3.9604422353        6.0603634153
 C        -9.9849416427        2.4563384563        6.7030962347
 C       -16.2834140511        0.7920081148        1.7113117498
 C       -14.4271414720       -0.9056146298        1.7371881303
 C       -16.1386045481        5.9049849143       -0.7770960340
 C       -14.2504107190        6.2408218235       -2.3738776225
 H       -12.3135737466        7.9070183300       -1.0419069433
 H       -12.7635782231        8.8346192848        0.4092583019
 H       -13.6719435824        9.2610285331       -1.0438029382
 H       -12.8196292952        3.2624089139       -0.9628518681
 H       -14.1552063215        3.7623379529       -1.8834588704
 H       -15.1460155506        2.0853030636       -1.0234325396
 H       -15.6584681611        3.0853528902        0.2498098513
 H       -13.5954702353       -0.4138545812        4.3656052210
 H       -15.1045640984        0.3977962893        4.6200066986
 H       -13.5951058462        1.1766300250        6.5826989553
 H       -13.9357375183        2.4752609264        5.2728658157
 H        -9.7396677583        1.2265808854        3.3556666686
 H        -8.7043032487        2.1602218696        4.6465301913
 H        -7.5012558281        2.4009006947        2.6336542090
 H        -8.5675799975        3.7666861905        2.8303215330
 H        -8.9307050170        3.3540414656       -2.9574474393
 H        -7.1777866397        3.4425964271       -2.4750553849
 H        -8.1272262917        6.1638282871       -2.1083553688
 H        -9.4392645935        5.3438964949       -3.0442542391
 H        -3.1772468441        6.2835848363       -4.1524818237
 H        -3.8915076645        5.5299384156       -5.3810168116
 H        -3.4635319632        4.3572204707       -2.5282300106
 H        -2.4709391355        3.9661757415       -4.0404689621
 H        -4.8000838523       -0.6742641198       -4.9963157683
 H        -6.4996061529       -0.0480199586       -5.1048026875
 H        -6.2516257563       -1.1744349464       -4.0265517515
 H        -2.2224959102        1.7034522366       -5.0795993127
 H        -3.7206772468        1.4660097710       -5.8827025520
 H        -3.0534009595        0.1127529618       -5.2446446366
 H        -3.5626170845        1.5610275786       -1.7298542989
 H        -2.2274889166        2.2419769192       -2.5584199091
 H        -2.2317822292        0.5550669321       -2.5478979634
 H        -6.1498938483        5.6557115570       -6.1490774205
 H        -5.3517212855        7.3357758442       -6.2335859850
 H        -7.0782301081        7.1010493321       -6.4991230185
 H        -6.3430020514        8.6881995703       -4.2583777779
 H        -6.4709115367        7.8992636052       -2.7532112514
 H        -7.8550567181        8.0098036981       -3.6885188634
 H        -6.0338360732        3.1698870548       -0.3393094950
 H        -6.5146427092        1.7353522737        0.6317989407
 H        -6.7856215345        3.4528075210        1.1992475025
 H        -9.6743694462        1.0394429942       -0.8167158615
 H        -8.0571920270        0.2438908116       -1.0808601684
 H        -8.5810812012        1.3819140128       -2.0820757150
 H       -12.0427742061        3.9443032320        7.1396792148
 H       -12.7795863167        4.1684081538        5.5059719707
 H       -11.1001956868        4.7478123093        5.7498776767
 H        -9.4561255158        1.5004334196        6.5060850098
 H       -10.4589217420        2.2985720764        7.7136313133
 H        -9.3376010399        3.3039019513        6.7352032620
 H       -16.8387658577        0.0447537635        2.3512089164
 H       -16.6226535128        0.4810375700        0.7263216864
 H       -16.6365973316        1.7170743223        2.0754252802
 H       -13.4540223850       -1.2032900082        1.4417799291
 H       -15.2103842554       -1.1929006289        1.0557790270
 H       -14.7619958431       -1.5047887103        2.6029032024
 H       -16.2849553963        5.5914876171        0.2393596275
 H       -16.3838751920        5.0700536766       -1.3698983025
 H       -16.8143165661        6.7493779979       -1.0369240835
 H       -14.4244438369        7.2667219661       -2.7202028219
 H       -14.9518449313        5.6887277266       -3.0817620993
 H       -13.2396800623        6.0561248753       -2.6012737074
 Na      -11.7161285897        3.4728609488        1.1662309241
