117

 C       -13.1902461401        8.4928689268       -0.6882652190
 C       -14.3043104491        7.4648812172       -0.1015285322
 O       -14.9108545555        7.7528328418        0.9017122499
 C       -14.5858938444        6.1761317854       -0.8616721551
 C       -13.8681769719        4.9937596104       -0.0986824125
 O       -13.3777052955        5.1816485184        0.9718490716
 C       -13.9038026826        3.5890394011       -0.8518366444
 C       -14.7888709659        2.5965904370       -0.0059003467
 C       -14.0493180020        1.5365832325        0.6280132246
 O       -12.8616276296        1.2875231046        0.4784171966
 C       -14.7888447541        0.6687073561        1.7709104052
 C       -14.1521483365        1.2718218896        3.1148040495
 O       -13.6315212316        2.3674731475        3.0079057367
 C       -14.1895067203        0.6521853928        4.5597165229
 C       -13.5895513275        1.5891728841        5.5238317637
 C       -12.0216755608        1.4851557541        5.4852495512
 O       -11.5563873855        0.3920042519        5.1877908007
 C       -11.1536579562        2.8749486712        5.5532012181
 C       -10.5230390149        3.0883693588        4.1593962948
 O       -11.1039364107        3.7704177942        3.3281781555
 C        -9.3986788489        2.2771245777        3.7440362881
 C        -8.4788965413        2.8475970248        2.6454488095
 C        -9.0255523674        2.4134959113        1.2637347797
 O       -10.1283347156        1.9601989767        1.1063029373
 C        -8.1257274057        2.5013984887        0.0798220221
 C        -8.8587569870        3.6627868236       -0.9766502869
 O        -9.9566548063        4.0464713442       -0.6347045174
 C        -8.3808374535        3.9114242221       -2.4515290790
 C        -8.1950501805        5.3996583413       -2.8697066968
 C        -7.7346860449        5.5607711218       -4.3548836114
 O        -8.1812040399        4.9815030800       -5.3131029219
 C        -6.4515564984        6.5409991794       -4.5633895372
 C        -5.3282777628        5.8689443031       -3.7877404903
 O        -5.4094133029        5.7183440790       -2.5575543715
 C        -4.0573279095        5.3037907851       -4.4043490677
 C        -3.5591863389        4.0841036808       -3.5863606338
 C        -4.4153045557        2.8864416485       -4.0206554844
 O        -5.5908345282        2.9855556089       -4.4876015796
 C        -3.8030968247        1.5367023338       -3.7728667610
 C        -5.0528326730        0.7005145851       -3.4245709136
 O        -5.7001494204        1.0218346274       -2.4688096732
 C        -5.6105114813       -0.3373709256       -4.4452836357
 C        -3.0593714745        0.9135544552       -5.0872302443
 C        -2.8743263742        1.4856458642       -2.4839348747
 C        -6.2278321256        6.6841447812       -6.1565978793
 C        -6.7881160647        7.8586374968       -3.7437825851
 C        -6.5818050716        2.6354067745        0.3029619092
 C        -8.3987161985        1.2932996078       -0.7460877039
 C       -11.9604384879        4.0331533733        5.9788674085
 C       -10.0975971423        2.5909669304        6.6339927119
 C       -16.3050976729        0.7182549720        1.8118924542
 C       -14.2984056941       -0.8476255045        1.7328950392
 C       -16.1428986474        5.9655900568       -0.6495664400
 C       -14.1003014753        6.3595100529       -2.4081959147
 H       -12.3242955282        7.8521755502       -0.8846461146
 H       -12.9127469492        9.1311995261        0.0945291911
 H       -13.6028985419        9.0170864411       -1.5605459476
 H       -12.8589355244        3.1498486050       -1.0109544667
 H       -14.2176530563        3.8052917130       -1.8687002734
 H       -15.6200067883        2.0959190845       -0.6420403053
 H       -15.3116080700        3.1587211903        0.7161116733
 H       -13.4386355977       -0.1038434783        4.3951905530
 H       -15.1588089897        0.1139123043        4.8450368334
 H       -13.7877051530        1.2230209437        6.6011180704
 H       -14.0034543155        2.5883860858        5.3922484133
 H        -9.8483008294        1.3200640538        3.3821975833
 H        -8.7628131381        2.1524513885        4.6959465370
 H        -7.4499411591        2.5095754798        2.7362554905
 H        -8.6155614422        3.8812268493        2.7453598603
 H        -8.9313684572        3.1898783481       -3.0379221104
 H        -7.3188493767        3.6339169757       -2.3818730137
 H        -7.3544973274        5.6567731200       -2.2315625221
 H        -9.0481666052        6.0643177762       -2.5660103204
 H        -3.2943560052        5.9864703120       -4.3712672830
 H        -4.0947621445        5.1385898313       -5.4919559750
 H        -4.0943328107        4.2878167120       -2.6386894170
 H        -2.5086120344        3.8960580588       -3.5506346679
 H        -4.7863649989       -1.0486715349       -4.7224171578
 H        -6.0428534370        0.2244141296       -5.3154006365
 H        -6.5361562813       -0.8581313477       -4.2298083731
 H        -2.0366614916        1.2348555218       -5.0578575093
 H        -3.5015431793        1.3247707868       -5.9654457368
 H        -3.1634859894       -0.2157606913       -5.2177007951
 H        -3.5101956534        1.7414774917       -1.6989810780
 H        -2.0107570462        2.1952036373       -2.5205370654
 H        -2.5311909740        0.5423046439       -2.3907334816
 H        -6.3483345468        5.7327125935       -6.6123386212
 H        -5.2762163538        7.1616422794       -6.2515595664
 H        -6.8637248991        7.3843655219       -6.4622673558
 H        -6.0109462593        8.6342032430       -3.8137510325
 H        -6.9018611155        7.5780562506       -2.6902266500
 H        -7.7379009993        8.1380951587       -4.0509751160
 H        -5.9882954080        2.7316182770       -0.6096903923
 H        -6.3889373852        1.6929682357        0.7910723369
 H        -6.5050178299        3.5663018484        0.8161936811
 H        -9.6123385402        1.1735999720       -0.9366641607
 H        -8.0029018584        0.2963436910       -0.4212401478
 H        -7.9334645768        1.2121285486       -1.7357762089
 H       -12.7927282302        3.7819979863        6.6640567350
 H       -12.3302075425        4.5921509903        5.0638952049
 H       -11.1913372536        4.6778778754        6.4249142764
 H       -10.0605398978        1.4865355391        6.6857791615
 H       -10.3113841425        2.9931862496        7.7213592273
 H        -9.1205705147        2.9506190880        6.3558737917
 H       -16.7947566861       -0.0256987102        2.5136757558
 H       -16.7091061277        0.3071639612        0.9003989682
 H       -16.6631145231        1.6576929980        2.0807035028
 H       -13.1473631749       -0.9559441691        1.7311337609
 H       -14.7508908208       -1.4153515141        0.9822392992
 H       -14.6536646177       -1.2527462426        2.6604838200
 H       -16.3658635423        6.0069212794        0.4191748663
 H       -16.4005968993        4.9737154466       -0.9621487081
 H       -16.7178285436        6.6975544503       -1.2152282984
 H       -14.5069622768        7.2851532962       -2.7636362538
 H       -14.4539467241        5.6763061994       -3.0616181131
 H       -12.9700946439        6.4779848396       -2.5130862431
 Na      -11.6628439407        3.2742522795        1.1488748906
