117

 C       -13.2068366433        8.6962847006       -0.7187238592
 C       -14.1503844208        7.6323517314       -0.0542582945
 O       -14.5829497598        7.8484066640        1.0605921996
 C       -14.5157254908        6.3263177863       -0.7828409170
 C       -13.8046498174        5.1373114268       -0.1875911698
 O       -12.7705289332        5.2622469503        0.3738597495
 C       -14.3914083451        3.6451752413       -0.7008679050
 C       -15.0359911473        2.7065566806        0.3229076655
 C       -14.1248108408        1.5068606568        0.5498705525
 O       -13.1094375407        1.3428117482        0.0192976236
 C       -14.5957367531        0.7403778155        1.8593548350
 C       -14.2317595425        1.5269817252        3.2277505093
 O       -13.6759743339        2.5794038027        2.9431898022
 C       -14.6263047353        1.0252582307        4.6995516300
 C       -13.8253846449        1.8677504098        5.7177742850
 C       -12.2881368226        1.6851620982        5.4141577237
 O       -11.8378477140        0.6035663717        5.1581459442
 C       -11.3886263541        3.1289241750        5.5761303892
 C       -10.6068246147        3.2106794926        4.1878763774
 O       -11.2770589260        3.7366409900        3.2867938132
 C        -9.3263887256        2.5156346139        3.9010959149
 C        -8.4586485856        2.9902292220        2.7211405569
 C        -8.9323560574        2.3172542959        1.2910368754
 O       -10.0073852948        1.7264499131        1.2487461348
 C        -8.0750842483        2.4405332161       -0.0506465452
 C        -8.7600654196        3.4874621620       -0.9391068490
 O        -9.6231043470        4.1618799782       -0.4900324205
 C        -8.3346369351        3.6591563244       -2.4129054554
 C        -8.0989018370        5.1639087826       -2.7472253131
 C        -7.6260327371        5.4398972632       -4.1806403397
 O        -8.1382711796        4.8054248966       -5.0983730270
 C        -6.5636390043        6.5053121423       -4.5896958684
 C        -5.2204655261        5.9350909346       -3.9721418331
 O        -4.9760145561        6.0947203167       -2.7385725292
 C        -4.3033176750        5.1370545643       -4.8357439550
 C        -3.4229334841        3.9152957957       -4.2765734994
 C        -4.3303269408        2.6003278711       -4.1142156325
 O        -5.4885924118        2.6273779548       -4.5741564951
 C        -3.7348615651        1.1565771399       -3.7100882059
 C        -4.9309218244        0.1603494961       -3.2840040481
 O        -5.4292072348        0.1094601567       -2.1638012770
 C        -5.6983003897       -0.5612453078       -4.3271594655
 C        -2.9333246525        0.6490799175       -4.9125638714
 C        -2.9433272186        1.3500163723       -2.3290251706
 C        -6.3836748401        6.4532368235       -6.1446403716
 C        -6.8784031611        7.9344555845       -4.0091112935
 C        -6.7503713732        3.3243367814       -0.0321501447
 C        -8.0686212772        1.0827466943       -0.6636903765
 C       -12.0545602026        4.5149371753        5.7641465411
 C       -10.6610570584        2.8720482376        6.9324217399
 C       -16.2005082457        0.3194085119        1.8396320670
 C       -13.9474254935       -0.6794382320        1.8108526631
 C       -16.1460325110        6.1312061573       -0.6620684184
 C       -14.0064760039        6.3095466272       -2.2934393408
 H       -12.0998053102        8.5407441336       -0.5189655929
 H       -13.5933254824        9.4705808051       -0.1090314748
 H       -13.3912057769        8.8180471792       -1.8125799873
 H       -13.5186745918        3.1428540791       -1.1213203653
 H       -14.9832545995        3.8613245827       -1.5540939648
 H       -16.0589477498        2.5105457422       -0.1241029284
 H       -15.1292431749        3.0860347728        1.3189926492
 H       -14.3440844605        0.0267224297        4.7975822664
 H       -15.6817492668        1.1094634258        4.7496289067
 H       -14.0746517178        1.2406762427        6.6634462951
 H       -14.1713432399        2.8703407899        6.0070572384
 H        -9.5689441192        1.5139998792        3.5838841850
 H        -8.6996276917        2.4425851384        4.8593426257
 H        -7.4326851732        2.8654601294        3.0251763946
 H        -8.7500173137        3.9835089037        2.4452502226
 H        -9.1527300733        3.2190474064       -2.9862128581
 H        -7.4209475078        3.0125882898       -2.7244894157
 H        -7.4539248493        5.5642995416       -1.9439166380
 H        -9.0561101437        5.7309509397       -2.5861827899
 H        -3.6276264136        5.8747435465       -5.2365124400
 H        -4.7774133487        4.6850339013       -5.7733067195
 H        -3.0808970416        4.1437293605       -3.2240819415
 H        -2.6567157482        3.4961469008       -4.9806884705
 H        -6.1259795580       -1.4383006362       -3.8350278007
 H        -5.3126489765       -0.7858819451       -5.2744133755
 H        -6.4498288576        0.0539453371       -4.6745121096
 H        -2.3512726917        1.4275773084       -5.4194252295
 H        -3.6423777524        0.1665004695       -5.5745719813
 H        -2.1641826246       -0.0384185078       -4.5586313152
 H        -3.4941540565        1.8875627289       -1.4955987294
 H        -1.9555504994        1.8300770999       -2.5528110208
 H        -2.8619888627        0.3300504852       -2.0793947898
 H        -6.2614057080        5.3752264271       -6.4305544746
 H        -5.5107476824        7.2104425196       -6.3150330762
 H        -7.3165763141        6.8328640422       -6.4255615934
 H        -5.9043313813        8.4349861138       -4.0194418505
 H        -7.2354516277        7.8040567316       -2.9517774270
 H        -7.5328005479        8.4515414127       -4.5866664609
 H        -6.2326592666        3.2206448019       -0.9934222352
 H        -6.1864019772        2.9678323327        0.8151883765
 H        -7.1405655372        4.3375516149       -0.0357337637
 H        -8.9747546827        0.8147728685       -1.3684057020
 H        -8.1024508331        0.2227250838       -0.0835804355
 H        -7.2438401844        0.8988015259       -1.2303418472
 H       -13.0988538145        4.4078211665        5.7054157418
 H       -11.6311774811        5.2554190968        5.1093435151
 H       -11.9451010537        4.8550775537        6.7947311602
 H        -9.9120713634        2.1721453111        6.6732862284
 H       -11.4773754902        2.5185510386        7.6718012246
 H       -10.2216335773        3.6269631867        7.4511640329
 H       -16.3719594552       -0.4623260066        2.6882107159
 H       -16.5546788754       -0.3188649895        1.0245374559
 H       -16.8735874652        1.1088247614        1.9128559859
 H       -12.8240592028       -0.6675665766        2.0400316076
 H       -13.9804042383       -0.9439076949        0.8106416247
 H       -14.4065155555       -1.3537103159        2.5428426801
 H       -16.4243499980        6.3036976010        0.3880591137
 H       -16.4628948806        5.1638302478       -0.9363835048
 H       -16.6262379532        6.9172599337       -1.3138973949
 H       -14.4072418903        7.2539964911       -2.7430754094
 H       -14.3737871164        5.5157755691       -2.9024630384
 H       -12.8310353076        6.3213659873       -2.3203652072
 Na      -11.8770687474        3.2176464301        1.2517680864
