117

 C       -13.2056113413        8.7525762294       -0.7201536076
 C       -14.1032421731        7.7116911800        0.0093878658
 O       -14.5499090111        7.6784724898        1.1349331348
 C       -14.4983707226        6.4220992991       -0.9118199866
 C       -13.8559918384        5.1354460393       -0.3999406486
 O       -12.7726200390        5.2007403852        0.1983415098
 C       -14.4272023054        3.8045504046       -0.7181143520
 C       -15.0482723583        2.8876784159        0.4342000078
 C       -14.2047592279        1.6155980990        0.6940611778
 O       -13.3044691411        1.2770470793       -0.0714301978
 C       -14.6091247671        0.6138991972        1.9000613673
 C       -14.3197460260        1.5819161202        3.2247725055
 O       -13.6060103352        2.5768040392        3.0991013240
 C       -14.6712787256        1.1682977704        4.6325719320
 C       -13.7896101421        1.9652961723        5.6725209517
 C       -12.3863573655        1.9033727952        5.3687819385
 O       -11.9092984271        0.7772401055        5.1421810885
 C       -11.4544903905        3.1464041013        5.5000513901
 C       -10.6528703522        3.2701321041        4.2182087820
 O       -11.1896690159        3.9377158043        3.3519987197
 C        -9.3035216428        2.5575648013        3.9474945552
 C        -8.5122351053        3.0071928382        2.6260415411
 C        -9.0434068089        2.4072417166        1.3034664580
 O        -9.9728989459        1.6521581540        1.3406660120
 C        -8.0882626698        2.5094098867       -0.0223092418
 C        -8.9969917399        3.5125390428       -0.9172010045
 O        -9.8948502182        4.2447631495       -0.4354826336
 C        -8.4175658512        3.6605507114       -2.3628315413
 C        -7.9527024906        5.1165637811       -2.7061825529
 C        -7.6243170534        5.3281100681       -4.2085027884
 O        -8.1866139985        4.7616150556       -5.1574576367
 C        -6.4632683122        6.3384003764       -4.5524452863
 C        -5.0664861261        5.8627417909       -4.0004378294
 O        -4.8315158215        6.1498709767       -2.8736463942
 C        -4.2507088129        4.9923805388       -4.9535450272
 C        -3.4883898549        3.7498538541       -4.3809631908
 C        -4.4026566437        2.5209209176       -4.2170571916
 O        -5.5505988620        2.5598696964       -4.5835672380
 C        -3.7606608375        1.0454401773       -3.6245361584
 C        -4.9613223929        0.0664689183       -3.2200076718
 O        -5.0637482274       -0.1107124552       -2.0148624427
 C        -5.7125827328       -0.5689987570       -4.4280829578
 C        -2.8748270877        0.4795151555       -4.7871517333
 C        -2.9671491755        1.3295146462       -2.3211268569
 C        -6.6767186030        6.4786283316       -6.1075352939
 C        -6.9001711439        7.8110489571       -3.9937948105
 C        -6.7033640657        3.2074727108        0.3612072888
 C        -7.8112739288        1.1278588133       -0.6410413483
 C       -12.2550128419        4.5584084470        5.5554741894
 C       -10.6593749105        2.7528611931        6.8728171944
 C       -16.1046028317        0.2647646549        1.8408801043
 C       -13.6991615140       -0.6533808709        1.9914409642
 C       -16.0343016757        6.3886740761       -0.6526229720
 C       -14.0981739512        6.4544613781       -2.4216814884
 H       -12.1946851210        8.3273636879       -0.6093193368
 H       -13.3359141010        9.6481768428       -0.1375947296
 H       -13.4492918556        8.7698889551       -1.7904979385
 H       -13.5447748892        3.2403485418       -1.1768745489
 H       -15.0595999226        3.9800040013       -1.5565721475
 H       -15.9623363665        2.5411886206       -0.1407629113
 H       -15.2818378774        3.3086265021        1.4038751719
 H       -14.4827162692        0.1465939237        4.6807320052
 H       -15.7360394494        1.3769390980        4.7800989806
 H       -14.2148587550        1.6040263029        6.6709186988
 H       -14.0023131296        3.0655015859        5.6840670635
 H        -9.3414450116        1.4370399336        4.0713287456
 H        -8.5508216639        2.9544451090        4.7163156639
 H        -7.5200620529        2.7338435126        2.7876080958
 H        -8.5878584434        4.0225151737        2.5265959276
 H        -9.0624274127        3.4262461805       -3.2380424692
 H        -7.6131663780        2.9283971331       -2.3996711024
 H        -7.2566325122        5.5472023489       -1.9653070200
 H        -8.9190146557        5.7669262028       -2.5575177472
 H        -3.4842569916        5.6174777345       -5.2799626279
 H        -4.7334028611        4.6319651584       -5.8567158413
 H        -3.1809988447        3.9397277632       -3.3395189605
 H        -2.6547508469        3.3802449930       -4.9768460574
 H        -6.4635506677       -1.2599177280       -4.1396572432
 H        -4.9626224578       -1.2059326778       -4.9638863050
 H        -6.0263409988        0.0457197224       -5.2372456307
 H        -2.3024658472        1.2589395061       -5.1419033188
 H        -3.4333844330        0.1154102662       -5.5529036743
 H        -1.9706212405       -0.1921312708       -4.4176513562
 H        -3.5476718472        1.6319844762       -1.5415557692
 H        -2.1656683405        2.0777625287       -2.5578265950
 H        -2.6154358036        0.3781516356       -2.1140417498
 H        -6.6473854006        5.5026981509       -6.6078652402
 H        -5.9638900390        7.1297295677       -6.3689359064
 H        -7.6666620600        6.8911447049       -6.0730250419
 H        -6.2910968120        8.5683453551       -4.3802490123
 H        -7.0273915971        7.8188409114       -2.9978033830
 H        -7.8865610620        7.9105907392       -4.4595144621
 H        -6.1875170047        3.1676329010       -0.5678405104
 H        -6.2645296836        2.5438216078        1.1017034948
 H        -6.8806790010        4.2524391703        0.6373950450
 H        -8.6745212134        0.6412918652       -1.1201725270
 H        -7.4155551293        0.1765252088       -0.1459676152
 H        -7.0870025656        1.2686618708       -1.5345215702
 H       -13.2538864186        4.5395440039        5.1060187520
 H       -11.5948117127        5.3859084108        5.2379253561
 H       -12.4968931357        4.6926513186        6.6055991126
 H        -9.7417205236        2.2834687164        6.5941151973
 H       -11.3682307050        2.2345678306        7.5166633632
 H       -10.3739820023        3.5631490658        7.5628717005
 H       -16.4956965922       -0.4849690092        2.5250542484
 H       -16.4292261825       -0.1614524457        0.8854487957
 H       -16.6750896430        1.1964337720        1.8603449671
 H       -12.6892144138       -0.1716308778        1.9644605927
 H       -13.6559182018       -1.1489800426        1.0575542914
 H       -13.7380433529       -1.1953492606        2.8883097453
 H       -16.1279971254        6.2700923911        0.4360724162
 H       -16.4799304329        5.5191200899       -1.1380807426
 H       -16.5318439452        7.2849334570       -0.9744072923
 H       -14.3175431122        7.4403688289       -2.8274841947
 H       -14.5316419004        5.7530200738       -3.0519940377
 H       -12.9779635630        6.2702230982       -2.4300334242
 Na      -11.7770991332        3.1165309689        1.1932009741
