117

 C       -13.0128723493        8.7110500296       -0.4672491683
 C       -13.8228764018        7.5149360655        0.0079378686
 O       -13.9709336280        7.2490580464        1.1879600551
 C       -14.6323444324        6.4990515036       -1.0869374582
 C       -14.0885889023        5.1201048707       -0.7065281981
 O       -12.9793901335        5.0675471761       -0.1050849898
 C       -14.9352822491        3.9260066706       -0.8843564112
 C       -15.2055317413        3.1351175461        0.4213794940
 C       -14.2874479616        1.8501375840        0.5800212549
 O       -13.4538134571        1.5068544433       -0.3015627138
 C       -14.3301245346        0.8287019268        1.8906366723
 C       -14.0882774793        1.8497867364        3.0448333375
 O       -13.3556645815        2.8150819828        2.8994961434
 C       -14.8836358173        1.6954297319        4.3596751848
 C       -14.0480332702        2.2468933594        5.6139758536
 C       -12.4846634001        2.3648448712        5.3838098970
 O       -11.9417548027        1.3714992929        4.8859740151
 C       -11.5335206769        3.6208760197        5.5262627009
 C       -10.8055069425        3.6133810066        4.1010347891
 O       -11.2115617458        4.3788802614        3.2609043250
 C        -9.7026255454        2.4868452132        3.8730347035
 C        -8.4526205590        2.7877022016        3.0573014359
 C        -8.8298749346        2.3335054559        1.6581852211
 O        -9.8613695739        1.6657410035        1.5576126139
 C        -8.0830148201        2.6549256641        0.3440512859
 C        -9.1671960662        3.2334876815       -0.6760068741
 O       -10.3255653331        3.6361534577       -0.4793630865
 C        -8.6338887334        3.5527982102       -2.1002649752
 C        -7.5336714774        4.6912389406       -2.4273891479
 C        -7.5431348099        5.0266346010       -4.0001741959
 O        -8.2930249125        4.4303314143       -4.7141264256
 C        -6.4324216721        6.1926397427       -4.6625683955
 C        -5.0503414418        5.5467073673       -4.3377795588
 O        -4.3806166931        5.7898313321       -3.4173939723
 C        -4.7941691360        4.3107126347       -5.2766988629
 C        -3.7242934122        3.3156022219       -4.7050075248
 C        -4.5464233874        2.1689551121       -4.1659297616
 O        -5.7108030948        2.1766968100       -4.3703004096
 C        -3.6785134839        0.9207163081       -3.5728491809
 C        -4.6544818521       -0.2514206466       -3.1578716886
 O        -4.3986603201       -0.7677713214       -2.0802064396
 C        -5.7728492994       -0.7170380894       -4.1543285124
 C        -2.6219096352        0.4764739454       -4.6412266541
 C        -2.9035170813        1.4408657181       -2.0922435129
 C        -7.0285753633        6.3358668255       -6.1192579881
 C        -6.6715162927        7.5197387551       -3.8836274944
 C        -6.8234206670        3.5812480808        0.3246027725
 C        -7.7008608671        1.2343223995       -0.2504092267
 C       -12.3560862459        4.8661474315        5.5208351411
 C       -10.7670025346        3.2515475799        6.8216494806
 C       -15.6622057488        0.2172896848        1.9843784965
 C       -13.1782446709       -0.2135563255        1.7816546561
 C       -16.0887966632        6.6912085146       -0.7622155042
 C       -14.1825499688        6.8487713461       -2.4471113267
 H       -12.5552286698        8.3580282750       -1.3856704856
 H       -12.3668007961        8.9677238867        0.4183171556
 H       -13.7305597591        9.4985990678       -0.7766043472
 H       -14.4806123381        3.4044599213       -1.7264154065
 H       -15.7259327445        4.4557023230       -1.3407167172
 H       -16.2296670282        2.7031386338        0.4697511304
 H       -14.8684198418        3.7095547823        1.2848583376
 H       -15.1143839459        0.6882273697        4.3805421583
 H       -15.7565222602        2.2845299942        4.2685350936
 H       -14.1750934284        1.7660989756        6.6334588507
 H       -14.5237612788        3.2725073898        5.7990256055
 H       -10.2032125927        1.5690317596        3.4673370806
 H        -9.3050021725        2.1337685953        4.8557513026
 H        -7.6290631195        2.1957766701        3.3605271481
 H        -8.1462047315        3.7775988241        3.1165848366
 H        -9.4203373924        3.8137789804       -2.8690042628
 H        -8.2785146176        2.6356949815       -2.5324888659
 H        -6.5868098613        4.3124358417       -2.0783652650
 H        -7.5994895170        5.7553215554       -2.0178168296
 H        -4.3473393822        4.6495926386       -6.2234054619
 H        -5.7679312658        3.8317739055       -5.4178219689
 H        -2.9938514490        3.8678909769       -4.0298550847
 H        -3.0458664447        2.8566769998       -5.3785992534
 H        -6.3240095806        0.0339533493       -4.5890165019
 H        -6.4426255230       -1.3822095891       -3.6679002931
 H        -5.3015610117       -1.2659552987       -4.9734716249
 H        -1.7224049170        1.0711738798       -4.5392601647
 H        -3.0409823451        0.8781163174       -5.5698858509
 H        -2.2438434204       -0.4878978572       -4.7317819010
 H        -3.5114422825        2.2397265912       -1.7145777076
 H        -1.9359045964        1.7526328192       -2.3644660128
 H        -2.8948029555        0.5196842562       -1.3994399241
 H        -7.2076832571        5.3104574532       -6.3832045008
 H        -6.2795755926        6.7081443527       -6.7232585345
 H        -8.0669356543        6.7954687293       -5.9331861661
 H        -6.0537765448        8.2730574460       -4.3132016341
 H        -6.4717901758        7.3075593312       -2.8871253185
 H        -7.7499950683        7.8843026644       -4.0727321012
 H        -6.2896127584        3.3657839903       -0.5690044692
 H        -6.4514762859        3.1686455125        1.2407631316
 H        -7.0641643618        4.5628627464        0.6257540390
 H        -8.4674156687        0.6830706754       -0.6837817855
 H        -7.3249313173        0.4582187722        0.5462346983
 H        -6.8871024830        1.1495607882       -1.0798656734
 H       -13.0409863658        4.7355233474        4.6685790586
 H       -11.7667134388        5.6946249133        5.1874549193
 H       -12.9466022830        5.0438581474        6.4000458342
 H       -10.7541949248        2.2135509236        7.1038119948
 H       -11.0894926786        3.8782301620        7.5731443658
 H        -9.6650153235        3.4394905499        6.6983176333
 H       -15.7142141499       -0.2071726041        2.9296623939
 H       -15.9623744524       -0.5100007605        1.2307024055
 H       -16.5471323426        0.9369793853        1.9668671899
 H       -12.2354572339        0.2273819066        1.8347237431
 H       -13.1976873009       -0.7931297801        0.7844583593
 H       -13.2674927067       -0.8137711607        2.6958415857
 H       -16.2631707108        6.3742144198        0.2732600624
 H       -16.6849761656        6.1214478723       -1.5129657919
 H       -16.3781390020        7.7112321896       -0.7721409386
 H       -14.3661445642        7.9581492411       -2.4774182518
 H       -14.6482638152        6.3469835561       -3.3646358423
 H       -13.1800466082        6.6085143836       -2.4907486474
 Na      -11.9406220287        3.2768594810        1.1756105484
