117

 C       -12.9751585493        8.7183052633       -0.3826280377
 C       -13.7432117967        7.4676373745        0.0583681342
 O       -13.9088447705        7.1241533471        1.1980873444
 C       -14.5324911980        6.6351085948       -0.9646142028
 C       -14.1213778771        5.0677924890       -0.5832122371
 O       -12.9874417768        4.9233819374       -0.2347560230
 C       -15.0251643342        3.7846228795       -0.8666458956
 C       -15.3412340690        2.9626145616        0.3979842865
 C       -14.2539915750        1.8420214118        0.5379255417
 O       -13.4642593495        1.6894990353       -0.3978053583
 C       -14.2667924915        0.9888027297        1.8444082484
 C       -14.0182838237        1.9631574248        2.9973870205
 O       -13.3843242645        2.9767974896        2.9019416337
 C       -14.8162071690        1.8357270043        4.3883072176
 C       -13.9658245477        2.5194187259        5.4686809441
 C       -12.4602066327        2.4738377527        5.2369677830
 O       -11.9984206805        1.3747610458        5.0115163348
 C       -11.6583214189        3.7463138912        5.5390153133
 C       -10.7131370780        3.6998781357        4.2814335660
 O       -11.0744334824        4.2656591335        3.2927469103
 C        -9.7058882333        2.5208659533        4.1750506146
 C        -8.5959340520        2.7987727920        3.1006377520
 C        -8.9622049374        2.3680592658        1.5685573177
 O        -9.9318397386        1.6856592108        1.4542831092
 C        -8.1104603203        2.6324221520        0.3066989030
 C        -9.1263228954        3.3748061222       -0.8539048741
 O       -10.2585988459        3.5274076150       -0.5473984916
 C        -8.6234709651        3.4513599734       -2.3112844491
 C        -7.5250139672        4.4952484999       -2.4153640554
 C        -7.5300403707        5.0380329353       -3.8823239605
 O        -8.2692815918        4.4029257546       -4.6390057647
 C        -6.6263131959        6.0641198801       -4.4382233853
 C        -5.1519999668        5.4386571662       -4.3541206947
 O        -4.3654127167        5.7921196446       -3.4905656000
 C        -4.8202743830        4.4099961701       -5.4465049210
 C        -3.8611231327        3.2194002470       -5.0681860981
 C        -4.5229614690        2.0768362722       -4.1332952110
 O        -5.7359728707        1.9148251467       -4.0161135856
 C        -3.6885082542        0.9859449495       -3.5889953705
 C        -4.5578180944       -0.3853319838       -3.1667385878
 O        -4.3742930790       -0.9369768178       -2.0923479072
 C        -5.6441773171       -0.9233827514       -4.0191047950
 C        -2.6083573438        0.5108166502       -4.4595404778
 C        -2.9393301685        1.3965681780       -2.2494066432
 C        -7.0995846180        6.1833757751       -5.9724896334
 C        -6.5255227898        7.5041487148       -3.9387340403
 C        -6.8199526471        3.5264391118        0.4358075985
 C        -7.5233960392        1.2808919313       -0.1343217195
 C       -12.4679545330        5.1226408818        5.5047823292
 C       -10.7534424505        3.4428425605        6.8551179679
 C       -15.6831264431        0.2096397547        1.8193226362
 C       -13.1216493107       -0.1068003497        1.6346848813
 C       -16.1349991828        6.9946085535       -0.7968113043
 C       -14.2804660481        6.8166992704       -2.5377949716
 H       -12.3624721780        8.4366359658       -1.2207933424
 H       -12.4632929171        8.9065292985        0.5943850058
 H       -13.6321249117        9.5313264885       -0.7059678199
 H       -14.2989205677        3.2575649508       -1.5018871888
 H       -15.7781994024        4.1616570526       -1.6081660242
 H       -16.1706808680        2.3480209512        0.2941374173
 H       -15.2501470577        3.5271435784        1.3984809262
 H       -15.0490584097        0.7491950628        4.6414200642
 H       -15.7084612770        2.3793164330        4.2504559386
 H       -13.9703981236        1.9749100074        6.4343780974
 H       -14.4534775450        3.4883959456        5.8331302000
 H       -10.1891345234        1.5580032337        3.6845104265
 H        -9.2898903217        2.1361747221        5.0994820326
 H        -7.8088575112        2.1841382633        3.2857309035
 H        -8.2045254738        3.7682483087        3.0919883390
 H        -9.3628379617        3.7438278890       -3.0906214970
 H        -8.3352975729        2.4755628561       -2.6344066927
 H        -6.5488553319        4.0374633086       -2.0098095678
 H        -7.6605394237        5.4341539286       -1.8411171861
 H        -4.4447588869        4.8829656721       -6.3826901131
 H        -5.7374871372        3.9844529456       -5.5225256974
 H        -2.9693082579        3.5625619896       -4.6162417515
 H        -3.3856983430        2.6611458941       -5.8705498529
 H        -6.2678029926       -0.2551656966       -4.6351865740
 H        -6.2237742559       -1.4266421390       -3.3241152659
 H        -5.2659752548       -1.6792874056       -4.7167324527
 H        -1.7681458380        1.1730951924       -4.6836722418
 H        -3.0505626074        0.2892536283       -5.4315226518
 H        -2.1885837837       -0.3661300299       -4.1334334009
 H        -3.4782701401        2.1207311089       -1.6907597662
 H        -1.9910101793        1.6211411861       -2.5351023777
 H        -2.9049944004        0.4265637163       -1.7608073097
 H        -7.3123101851        5.2595647855       -6.3347969819
 H        -6.2062862850        6.5942958350       -6.4425628126
 H        -8.0021323304        6.7171245048       -5.9263352069
 H        -5.6758291348        7.9339847227       -4.3656866485
 H        -6.4949371990        7.5686473138       -2.8550116780
 H        -7.3294494774        7.9943303032       -4.3499467900
 H        -6.2736505780        3.1732262139       -0.3645249465
 H        -6.4694635288        3.4113331459        1.4176021446
 H        -7.1452614775        4.5460972871        0.4490480451
 H        -8.1761110610        0.3118825064       -0.4639691032
 H        -7.0907570675        0.8547860046        0.8238411171
 H        -6.6965899705        1.1534392182       -0.8691357546
 H       -13.3866066980        4.8953816258        4.9072236926
 H       -12.0607908365        5.8461109510        4.7986542473
 H       -12.7714613461        5.5254130303        6.4913923376
 H       -10.6590627972        2.3760629452        7.1666078691
 H       -11.2304628915        3.9679667413        7.6643484856
 H        -9.6949683441        3.8008188598        6.7701212084
 H       -15.6222679658       -0.5012339270        2.6050194072
 H       -15.7594296844       -0.3086805405        0.8758310483
 H       -16.6783533107        0.6750730032        1.9686964574
 H       -12.1532954906        0.2615801757        1.8239672869
 H       -13.1587844940       -0.5077507333        0.5987708449
 H       -13.3322285902       -0.8411205052        2.4223723381
 H       -16.6254832766        6.8313017017        0.1456507450
 H       -16.6066133835        6.5329432087       -1.6960644848
 H       -16.2339349034        8.0569459845       -0.9533466722
 H       -14.2585634570        7.8335504782       -2.7304554746
 H       -15.1107756425        6.3542077145       -3.1228566465
 H       -13.4207925836        6.2887591901       -2.8450132312
 Na      -11.9675445062        3.3642876643        1.2029191139
