117

 C       -12.8978333393        8.6540660769       -0.3627677127
 C       -13.7269004085        7.3731248270        0.1663734985
 O       -13.6102691798        6.9998973787        1.2858980068
 C       -14.5550506420        6.5792135844       -0.8601623588
 C       -14.4306701768        5.0797606644       -0.6310628121
 O       -13.3977072539        4.5879813514       -0.2343352230
 C       -15.5825725166        4.0925605180       -0.9671173179
 C       -15.6427610445        2.8006449391       -0.0167346028
 C       -14.3270175180        2.0824808050        0.2685754378
 O       -13.2610871566        2.1825537976       -0.3913204881
 C       -14.3606767967        1.3053568533        1.5757191613
 C       -14.1229321058        2.1956685156        2.8414120900
 O       -13.4528911885        3.1626658058        2.7084349360
 C       -14.6746373692        1.7431881537        4.2047229662
 C       -14.2538750403        2.9015370302        5.1721687355
 C       -12.6619004593        2.7394866760        5.4073242776
 O       -12.2695562814        1.6512606516        5.7501301857
 C       -11.5764065905        3.9784740404        5.4053691499
 C       -10.6195873695        3.8837791138        4.2355733453
 O       -10.8375304461        4.4820237189        3.2328275198
 C        -9.4759272570        2.7722757430        4.3873746380
 C        -8.5445123891        2.8388660855        3.1131278176
 C        -9.1185333913        2.3406725631        1.7465337766
 O       -10.1859937294        1.8085982681        1.6746971994
 C        -8.2162435325        2.4949354202        0.4319872954
 C        -8.9910751217        3.0016342987       -0.8260351174
 O       -10.0422145010        3.5630621801       -0.7900593472
 C        -8.1573205817        3.1524420615       -2.1221645282
 C        -7.5189362019        4.5228405741       -2.5488716563
 C        -7.6701916109        4.7503921104       -4.1113500294
 O        -8.6724482155        4.4866995419       -4.7643927969
 C        -6.4869410796        5.7552062831       -4.6206197795
 C        -5.1367970526        4.9354813611       -4.6749076586
 O        -4.3195329591        5.1652048875       -3.8315492233
 C        -5.2008044358        3.8192340904       -5.6250028515
 C        -4.2227402465        2.6440292007       -5.2109600787
 C        -4.6490694770        1.7990971725       -4.0326485437
 O        -5.6288474964        2.0476221092       -3.4043273155
 C        -3.6626214137        0.7783773373       -3.4654373318
 C        -4.4257856155       -0.5449858772       -2.9898910071
 O        -4.0380837052       -1.0933033897       -1.9750227005
 C        -5.2287688424       -1.3657991643       -4.0397229815
 C        -2.6273988308        0.2759496425       -4.5872766595
 C        -3.0250414006        1.5981691045       -2.3183628165
 C        -7.0107564004        6.4750911256       -5.9089542925
 C        -6.5150040528        6.8551666841       -3.4773178771
 C        -7.1245967298        3.7234660217        0.7134953546
 C        -7.4048139198        1.1979259543        0.3147609690
 C       -12.3502696692        5.4117234360        5.1010176821
 C       -10.8359887882        3.7786411056        6.6939367572
 C       -15.5632536172        0.3141771391        1.7338280190
 C       -13.0644410859        0.3638662058        1.8029154205
 C       -16.0454128480        7.1247226774       -0.6397838462
 C       -13.9371274426        6.8325892964       -2.3950388892
 H       -12.1921939370        8.0439903717       -0.8742913615
 H       -12.4450101595        9.2919830650        0.4601257061
 H       -13.4383537958        9.2443823083       -1.0964050312
 H       -15.3038512758        3.7789342457       -1.9791152608
 H       -16.5560863592        4.5725908742       -1.1260372821
 H       -16.2628417446        2.1163740466       -0.6164592436
 H       -16.0326105179        2.9503355242        1.0069751905
 H       -14.0725247169        0.8971306619        4.4782616563
 H       -15.6786550610        1.4747408003        4.1068699918
 H       -14.8007470962        2.8335943994        6.1246507833
 H       -14.4787675981        3.9468614701        4.7798995960
 H        -9.9483421041        1.7450381663        4.4303654002
 H        -8.8506227115        2.6938034953        5.2980633507
 H        -7.7101316829        2.1315009114        3.2138098764
 H        -8.0903487180        3.8297690717        3.0232691892
 H        -8.7701558657        2.6879530971       -2.9734225180
 H        -7.3569162354        2.4507756979       -2.0681348944
 H        -6.4845112637        4.5157141587       -2.2930688813
 H        -7.9763338474        5.3483858563       -1.9901248166
 H        -4.9537825551        4.2825785272       -6.6423979469
 H        -6.1928710451        3.3630232664       -5.5562487473
 H        -3.1614626358        2.8679787892       -4.8241430643
 H        -3.8120549845        2.0807509069       -6.0254911986
 H        -5.2502119385       -0.8302566036       -4.9836632299
 H        -6.1624376768       -1.7910518967       -3.8001951417
 H        -4.4267495170       -2.1009956093       -4.3379223578
 H        -2.6325154142        0.9423059965       -5.4857038879
 H        -2.6585058964       -0.7952755499       -4.9366006059
 H        -1.6682932376        0.2335131432       -4.2399803809
 H        -3.8086127371        1.4307574733       -1.5110492104
 H        -2.7646869378        2.5740680272       -2.6199568986
 H        -2.0621028684        0.9994468612       -2.0941353846
 H        -7.2809286729        5.7117391082       -6.6417870019
 H        -6.2592515298        7.3070070078       -6.2016860048
 H        -7.9239513914        6.9681858096       -5.4877016622
 H        -5.9339679151        7.7463758868       -3.8379680181
 H        -6.0992379665        6.6280622858       -2.4346448619
 H        -7.5988037179        7.1181877675       -3.4364830719
 H        -6.6968427300        3.9383422918       -0.2479129847
 H        -6.4501652416        3.2441933018        1.4425023907
 H        -7.7044238074        4.4970145727        1.2391144016
 H        -8.1248566247        0.2548574065        0.2970761825
 H        -6.5603137253        1.0099611205        0.8916958443
 H        -7.0083740892        1.1583548003       -0.6590735471
 H       -12.3841552328        5.5598626475        4.0433128755
 H       -11.7660870701        6.2705968855        5.4049654821
 H       -13.2734937333        5.5661817456        5.6038990109
 H        -9.8877483651        3.2630365210        6.7782294411
 H       -11.4152947501        3.2353904084        7.3422919505
 H       -10.7432231108        4.8160636711        7.1031441345
 H       -15.4445015052       -0.3045465912        2.5682116465
 H       -15.6562325784       -0.3165761807        0.8260291127
 H       -16.5581535989        0.8799007598        1.9052221847
 H       -12.2668460748        1.0283141066        1.7247791176
 H       -13.0452573245       -0.4678198100        0.9977156489
 H       -13.0417858738       -0.1901703155        2.7621109605
 H       -16.2951747236        6.9521835455        0.4084705794
 H       -16.7649036024        6.5844471226       -1.3266313694
 H       -16.1642107197        8.1495135893       -0.8847402712
 H       -14.1748579003        7.9199388691       -2.5387897582
 H       -14.4151878250        6.1669467008       -3.2542510449
 H       -12.8778824658        6.7430569892       -2.3331618909
 Na      -11.6949644542        3.6578506389        0.9724625225
