117

 C       -12.8433894898        8.6413564335       -0.3022516209
 C       -13.5914620780        7.3364780595        0.1595158843
 O       -13.5183278368        7.0318195116        1.3387615040
 C       -14.5942891610        6.5961692205       -0.8310273934
 C       -14.4673960567        4.9790403931       -0.5818961544
 O       -13.4052284148        4.7540384511       -0.1131948295
 C       -15.6313655288        3.9731546925       -1.0147571182
 C       -15.7003092361        2.7015689514       -0.0911983558
 C       -14.3527109032        2.0484460112        0.2748479087
 O       -13.3687111779        2.2347119898       -0.4067478541
 C       -14.3186545637        1.2745925862        1.5695692375
 C       -14.1311498703        2.3440079258        2.7224997612
 O       -13.4112399080        3.2932585138        2.5782976930
 C       -14.6196100098        2.0215790288        4.1456688510
 C       -14.0769010305        3.0313139662        5.1050726067
 C       -12.7025727485        2.8477623318        5.5048968408
 O       -12.2054549679        1.8274263321        5.9100846411
 C       -11.7083714374        4.0298316010        5.3929275352
 C       -10.7481875898        3.7879004968        4.0769269013
 O       -10.7158344674        4.4421785992        3.0386238951
 C        -9.6351081238        2.7147923258        4.2361268958
 C        -8.4380274816        2.7665159126        3.2345682923
 C        -9.0164170260        2.4007593875        1.8676220252
 O       -10.1090313407        1.8333724730        1.9008236754
 C        -8.1695898156        2.6200914085        0.5470807146
 C        -8.8851016268        3.0883944842       -0.8640638795
 O        -9.9648502203        3.6270626022       -0.9164266777
 C        -8.1313038652        2.9290169763       -2.2767045159
 C        -7.7362346129        4.3446447949       -2.6070654364
 C        -7.7573946331        4.8354989954       -4.0492576370
 O        -8.6391279674        4.4970357400       -4.8276178964
 C        -6.6506252280        5.7298785981       -4.4795618228
 C        -5.3598616502        4.7345410525       -4.6509503066
 O        -4.2737693593        4.8847009863       -4.0401474320
 C        -5.4823341648        3.6098889386       -5.6851119318
 C        -4.3055894822        2.6310418173       -5.3551501832
 C        -4.5822622901        1.8519638605       -4.0287292315
 O        -5.6428783837        2.0365173543       -3.4091536925
 C        -3.5823255713        0.7637556148       -3.4603117786
 C        -4.2280284848       -0.6884423761       -3.0382318585
 O        -4.0951157153       -1.0458017149       -1.8898215673
 C        -5.1216042453       -1.5093789408       -3.9763696380
 C        -2.5750643621        0.3108179724       -4.5377930020
 C        -2.8598421140        1.4441739127       -2.2137799670
 C        -6.9723645829        6.4000230670       -5.8657934250
 C        -6.3287903091        6.7940224632       -3.3765480204
 C        -7.0118911792        3.7109044214        0.5518346883
 C        -7.4596222454        1.2300640698        0.4902085518
 C       -12.4688027434        5.3717927851        5.1873558946
 C       -11.0313879512        4.0339234119        6.8416029868
 C       -15.5854248685        0.3912725976        1.7117636928
 C       -13.0900099211        0.2901145581        1.6122147785
 C       -16.0001879237        7.1723294686       -0.7610455096
 C       -14.0500509057        6.9159805330       -2.3272220084
 H       -11.9072500160        8.3095510420       -0.8278157544
 H       -12.6528738578        9.1840671781        0.6223134500
 H       -13.5396939356        9.2510810178       -0.9451039418
 H       -15.5430222907        3.7626442551       -2.0738514317
 H       -16.6437076450        4.4825144009       -1.0273950511
 H       -16.2039333704        2.0434231291       -0.7244347138
 H       -16.3038692122        2.8073918621        0.9044021662
 H       -14.2468955116        1.0068986223        4.3274081737
 H       -15.6444227450        2.0779222826        4.2038623087
 H       -14.7996397828        2.8709880615        5.9818007866
 H       -14.3103191401        4.0884806326        4.7562950012
 H       -10.1557770702        1.6895921734        4.3914515142
 H        -9.1688019998        2.7458411660        5.2160223849
 H        -7.7966859839        2.0152112130        3.4728624260
 H        -7.9759976622        3.6934435099        3.3695401096
 H        -8.7877252684        2.2997256090       -2.8799227974
 H        -7.2437504880        2.3059239295       -2.1450131547
 H        -6.7530300562        4.5999417793       -2.0428045720
 H        -8.4848442355        4.9057486246       -2.0501407811
 H        -5.3293714214        4.0640825382       -6.6953698292
 H        -6.3630801366        3.0695303000       -5.5202399252
 H        -3.3290120559        3.0463779486       -5.2425361717
 H        -3.9584977597        1.9620205205       -6.1314085162
 H        -5.3167892834       -1.1248610231       -4.9628355194
 H        -5.9967576477       -1.5881023228       -3.3979178934
 H        -4.6618892634       -2.4142772810       -4.1950788989
 H        -2.5802776655        0.9694645949       -5.2982096951
 H        -2.6856081076       -0.6388221014       -4.9073217899
 H        -1.4511077084        0.1295527552       -4.1978510450
 H        -3.5514385380        1.2583616308       -1.3870962090
 H        -2.6303690256        2.5002480879       -2.5114459741
 H        -1.9844519019        0.9603492534       -2.0984590986
 H        -7.0920092545        5.5788544821       -6.5625439201
 H        -6.0303205901        6.9958706948       -6.0251876212
 H        -7.7687550585        7.0207112822       -5.7791320705
 H        -5.9907273269        7.6927076518       -3.8872966398
 H        -5.4378541204        6.5478524409       -2.7121812859
 H        -7.1463579444        6.9630847237       -2.7790415298
 H        -6.5588038125        3.4693913166       -0.3883682901
 H        -6.2990708071        3.4831054577        1.3385013741
 H        -7.5750950045        4.6545433309        0.5959376583
 H        -8.0936860801        0.3142622085        0.1726867379
 H        -6.8441164820        0.9552522217        1.4040354070
 H        -6.5982984211        1.2369812560       -0.2853486627
 H       -12.4606415054        5.7164342093        4.1787795135
 H       -11.9173088942        6.1303642415        5.7165500127
 H       -13.3899450521        5.5339047370        5.6976838642
 H       -10.2162096962        3.3765940431        6.9778240865
 H       -11.7205188350        3.5541906074        7.5976694885
 H       -10.9047326619        5.0324522674        7.1255252183
 H       -15.8219886528       -0.1331887902        2.6670541134
 H       -15.4840328198       -0.3370128035        0.9206955083
 H       -16.4385548854        1.0015048403        1.4641377806
 H       -12.1593378411        0.9178003600        1.3174176754
 H       -13.3115918387       -0.4641547989        0.9409335277
 H       -12.9457130370       -0.2618737804        2.5463200466
 H       -16.5164185837        6.7287793291        0.0826772579
 H       -16.5179938698        6.9016708522       -1.7056431919
 H       -16.0431182620        8.2641253538       -0.7262442179
 H       -14.2995453344        7.9120571203       -2.6292309401
 H       -14.4831001877        6.1917240068       -2.9918161370
 H       -12.8952692716        6.8417767952       -2.2528405291
 Na      -11.7129177046        3.7361576560        1.0059269972
