117

 C       -15.0277164952       -2.6818209197       -3.8257916867
 C       -13.8562026067       -3.3452507037       -3.0324542637
 O       -14.0527919334       -4.3271851391       -2.3554317320
 C       -12.3855285977       -2.8541384273       -3.0358986918
 C       -12.3137542859       -1.7037686027       -2.0125863980
 O       -12.2361455258       -0.5371023118       -2.3695541840
 C       -12.3685254961       -1.9420799306       -0.5334019789
 C       -11.5441948288       -0.8240360332        0.1634573199
 C       -10.7372895157       -1.2856189667        1.3871959783
 O       -11.1570191232       -2.1084430947        2.1309122326
 C        -9.2830065721       -0.8018666956        1.6138193950
 C        -9.2612305324        0.0726137177        2.9126594367
 O       -10.2321820412        0.2932232354        3.5810770796
 C        -7.9093196013        0.8165998889        3.2978646835
 C        -8.2274254548        1.9416016441        4.2510110757
 C        -8.9497776658        3.1483892058        3.4479839046
 O        -8.4836583179        3.5379568369        2.3768124123
 C       -10.4024697163        3.7800149893        3.9497065330
 C       -11.1992089946        4.1036551212        2.6038511690
 O       -11.1278093511        5.1397333055        2.0521808175
 C       -11.9819008114        2.9529734331        1.9606570599
 C       -12.5634903328        3.4389316036        0.5343029471
 C       -11.3196154002        3.9656264548       -0.2101525281
 O       -10.2207809347        3.4645785685        0.0519206827
 C       -11.6304582375        4.9304552492       -1.4645020915
 C       -10.3192203121        5.5844935069       -2.1146140125
 O        -9.3694084861        5.8083187682       -1.3655502077
 C       -10.3828670645        6.2440023036       -3.5118277782
 C        -9.1690344485        7.1825248096       -3.7496488166
 C        -9.4653737141        8.5129660848       -3.1846245309
 O       -10.5726046720        8.7641038203       -2.7664262007
 C        -8.3514275318        9.6257517043       -2.9761694818
 C        -7.6595438311        9.2040717512       -1.5802288056
 O        -6.8884945699        8.2687143914       -1.5315433509
 C        -8.2748984366        9.8164258448       -0.3990291572
 C        -7.5389732047        9.4953866080        0.9837506007
 C        -7.4446898685        8.0460535032        1.3304566786
 O        -8.4919313899        7.4064221537        1.5269452139
 C        -6.0061270961        7.3760932603        1.5099185120
 C        -5.7692397772        6.2546590217        0.3616912136
 O        -6.4493406809        5.2474001810        0.2624409660
 C        -4.5394829470        6.3934111152       -0.4849806753
 C        -4.9066345670        8.4026544633        1.6017782759
 C        -6.0618879217        6.6941138996        2.8735979372
 C        -7.3438015386        9.3584707650       -4.1583411334
 C        -8.8515979238       11.0071980989       -3.2943166096
 C       -12.2572920706        3.9512008655       -2.5187289729
 C       -12.6660503131        6.0075396508       -1.1421039556
 C       -11.0635929083        2.8732707300        4.9034203002
 C       -10.0781969794        5.1321365896        4.5942535299
 C        -8.3104472223       -2.0682719343        1.8599108423
 C        -8.7656852096        0.0642112648        0.3140001252
 C       -11.3898498560       -3.9285016613       -2.6802351491
 C       -12.0694090881       -2.3061496416       -4.5184231433
 H       -14.9871306090       -3.0092817767       -4.8791981361
 H       -14.7154326409       -1.6782158716       -3.8944519111
 H       -15.9151457028       -2.7419099479       -3.2626351829
 H       -12.0786372791       -2.8755266000       -0.1783488547
 H       -13.4604099091       -1.6428692835       -0.3541023779
 H       -12.1699344856       -0.0126279918        0.3871261428
 H       -10.9143791879       -0.2805497575       -0.4815357913
 H        -7.2577749440        1.2324457270        2.4780306023
 H        -7.2500743592        0.0390578059        3.7867436136
 H        -7.2906585201        2.4574583060        4.5991264045
 H        -8.7534646315        1.6420903640        5.1306002816
 H       -12.8112911451        2.5626912295        2.6164005929
 H       -11.2376032369        2.2224315153        1.8607825587
 H       -13.3044540561        4.1545379101        0.5539021501
 H       -12.9476070408        2.5683610460       -0.0146460697
 H       -11.3557775081        6.7398044698       -3.6079435279
 H       -10.4547176952        5.4501616314       -4.2692238012
 H        -8.8267157156        7.2801259971       -4.7559352918
 H        -8.3764604068        6.7637840282       -3.1232480579
 H        -9.2961957127        9.4732477907       -0.2635284677
 H        -8.3577743595       10.8945025598       -0.4884921149
 H        -8.1965085731        9.9423858841        1.6665145446
 H        -6.5996000118        9.9553183501        1.0430655940
 H        -3.7844848705        7.0725276574        0.0061516593
 H        -4.9367859785        6.8892774572       -1.4052108749
 H        -4.0097704057        5.4164756896       -0.6383392175
 H        -5.2427689415        9.2356164513        2.2509342218
 H        -4.6881086116        8.9068534000        0.5758782234
 H        -4.0400083712        7.9908488878        1.9786293668
 H        -6.8699990160        5.9553120077        2.7962833169
 H        -6.3479579098        7.3538978205        3.7402349096
 H        -5.1828720488        6.2166225632        3.1436717200
 H        -7.9129434066        9.4854978390       -5.0313665786
 H        -6.8555042620        8.3666133711       -4.1309367111
 H        -6.5457042823       10.0782346609       -4.0891154354
 H        -9.8094457502       11.0334430539       -3.8718243515
 H        -8.0851743642       11.6522836303       -3.7589580074
 H        -9.1190895059       11.4750901959       -2.3224688275
 H       -13.3299430297        4.0187978293       -2.5219266989
 H       -11.9706899694        2.9600565954       -2.3293014626
 H       -11.9815290899        4.2147790899       -3.5232737635
 H       -12.2254608882        6.8102592058       -0.5450518616
 H       -13.5615431167        5.5197731397       -0.6775923782
 H       -12.9898142334        6.4361408445       -2.1337061531
 H       -11.5990060640        2.0866874195        4.4194760999
 H       -11.7227249079        3.4130156989        5.5533615882
 H       -10.3229281791        2.3048844555        5.5220481530
 H        -9.1166454815        5.2600176118        4.9983003160
 H       -10.7040256622        5.4726512126        5.4137155293
 H       -10.0855478430        5.9686608478        3.8865260598
 H        -8.3813053923       -2.6854835679        0.9429582309
 H        -8.6639769807       -2.6102374066        2.7169662106
 H        -7.2647820357       -1.7690971679        2.0590022730
 H        -9.2008652915        1.0226873510        0.2557167547
 H        -9.0338020506       -0.4425899020       -0.6194095714
 H        -7.6783452460        0.1477017790        0.3514194966
 H       -11.6363407293       -4.4682458328       -1.7335966350
 H       -10.3948717689       -3.5231240038       -2.5194353960
 H       -11.3753542453       -4.6618661053       -3.4798406829
 H       -12.8234234809       -1.5686112911       -4.8231164939
 H       -11.8507152227       -3.1788201740       -5.1031024324
 H       -11.1689885375       -1.7084777904       -4.3744678621
 Na       -8.7331040709        5.0264455857        0.7961635836
