117

 C       -12.9171475909        8.8480566089       -0.2565347295
 C       -13.7460502428        7.6428350280        0.2470757071
 O       -13.7704507636        7.3650246050        1.4821116511
 C       -14.5478750976        6.7946896420       -0.9134685371
 C       -14.3737177495        5.2090108455       -0.6365364225
 O       -13.4895255686        4.8292740305        0.1184338898
 C       -15.2449408381        4.1387264885       -1.2037337694
 C       -15.6923890002        3.0502589501       -0.2226348292
 C       -14.4254529990        2.1791141510        0.1222959280
 O       -13.5718826428        2.0668600723       -0.6981213453
 C       -14.3383748785        1.3498165405        1.4991028040
 C       -14.0349097412        2.3195594686        2.6985359425
 O       -13.1868287347        3.2513688518        2.5909071488
 C       -14.5938813069        2.1903620359        4.1250735184
 C       -14.1554318099        3.4584371877        4.9297768285
 C       -12.7330233743        3.3403387099        5.4016128715
 O       -12.4328980656        2.2732954026        5.8869663729
 C       -11.7575652823        4.5622114061        5.2063518769
 C       -10.6998630639        4.1465424692        4.0959988682
 O       -10.8356361335        4.4768892994        2.9038939965
 C        -9.7270606978        3.0087354268        4.3426860482
 C        -8.5788924638        3.0563149404        3.3850427771
 C        -9.0445157877        2.4368166004        1.9838593750
 O       -10.1240158196        1.8017821054        1.9283262599
 C        -8.0900789825        2.4782588759        0.7815117784
 C        -8.9111609509        3.0358342593       -0.5582686888
 O       -10.0719243406        3.5376751417       -0.5262800782
 C        -8.3074211503        3.0530996621       -1.9972422683
 C        -8.0882310336        4.5630746412       -2.4410800304
 C        -7.7973637810        4.6406279033       -3.9586006801
 O        -8.5897974404        4.0882081714       -4.6844316727
 C        -6.5145740603        5.2282485293       -4.4463596155
 C        -5.4364884240        4.0264329061       -4.8174380166
 O        -4.2308133412        4.1708606220       -4.5029100188
 C        -5.9112671087        2.7498427926       -5.5262422019
 C        -4.8684009037        1.6685875289       -5.4196773426
 C        -4.6215856556        1.3756244255       -3.9286911439
 O        -5.4017023170        1.6504004310       -2.9711862822
 C        -3.2618712179        0.6150344200       -3.5398523459
 C        -4.0278883208       -0.5964611619       -2.9322055344
 O        -4.2141130529       -0.7263262666       -1.7509470493
 C        -4.5720266943       -1.6153443446       -4.0091215513
 C        -2.2660759160        0.1913318446       -4.7463756503
 C        -2.4751870403        1.5812328444       -2.5113154059
 C        -6.8434463835        5.8491557801       -5.7822269987
 C        -5.8924642528        6.2194945203       -3.4696742033
 C        -6.9271393416        3.4894385899        1.0588985487
 C        -7.3468994734        1.1706769935        0.3907428429
 C       -12.3561789574        5.9276066639        4.9463283662
 C       -11.0084449651        4.6718135366        6.5213529355
 C       -15.7551184302        0.6899741848        1.4759442561
 C       -13.1733079319        0.3713667941        1.3900616973
 C       -15.9287078032        7.1717501787       -0.5774224052
 C       -14.1286876353        7.0554858333       -2.3589988396
 H       -12.2866261025        8.4097474339       -1.0648104664
 H       -12.3307862651        9.3842805875        0.4139898953
 H       -13.7319612836        9.4966276808       -0.6483684772
 H       -14.7452833865        3.7017446222       -2.0329162604
 H       -16.0651143764        4.5992610897       -1.7495749917
 H       -16.4316110169        2.3722468694       -0.5488438312
 H       -16.1496332946        3.4260866504        0.7776585011
 H       -14.0450478317        1.3640622192        4.5321045754
 H       -15.6116646580        2.0034318661        4.1105811588
 H       -14.6923276343        3.3002880593        5.9304478406
 H       -14.4028698765        4.4135791217        4.4196084680
 H       -10.1793028651        1.9621018768        4.2640871179
 H        -9.4843394108        2.8464015371        5.3825602406
 H        -7.8237216349        2.4587876459        3.8119214630
 H        -8.3204635950        4.0448021940        3.0402136001
 H        -8.9464206266        2.5875938040       -2.7355919626
 H        -7.2732776018        2.6281542142       -2.0016089096
 H        -7.3546045165        5.0643284966       -1.7145409730
 H        -9.0245510761        5.0410821233       -2.3344407233
 H        -5.8609361136        2.9576811640       -6.6272915643
 H        -6.7880829607        2.3188691178       -5.0273287411
 H        -4.0015371879        1.7982892817       -6.0076366455
 H        -5.1481799457        0.7894965186       -6.0689449910
 H        -3.9520446766       -1.4899804551       -4.8899847271
 H        -5.6478869412       -1.4456625445       -4.2894872793
 H        -4.3839074285       -2.6124723941       -3.7449677022
 H        -1.2293286961        0.3894717510       -4.4271043976
 H        -2.3718416313        0.6643389582       -5.7266009066
 H        -2.2523444728       -0.8838891802       -5.0633885468
 H        -3.1773872321        2.3437056350       -2.1714954202
 H        -1.6023617808        2.0402975092       -3.1338059561
 H        -2.2138281649        0.9339306709       -1.7002143544
 H        -7.4098709630        5.0337984062       -6.3816629923
 H        -5.9150701667        6.1755803027       -6.1769694803
 H        -7.4632992442        6.7620549481       -5.6154791331
 H        -6.6994593902        6.6581251352       -2.7423798059
 H        -5.3640577857        7.1039690798       -3.8730202463
 H        -5.0643255749        5.7475730390       -2.8348303407
 H        -6.1753280650        3.3896022134        0.2786747834
 H        -6.4673943387        2.9587841432        1.8542808476
 H        -7.3415005607        4.4921785327        1.0789402561
 H        -7.9381841645        0.3277001536        0.4710372413
 H        -6.4101449910        0.9945492553        1.1345316050
 H        -6.9395516841        1.2599613881       -0.7230730497
 H       -12.8321971675        6.0161547826        3.9987022860
 H       -11.5537725731        6.6243388384        5.1146200052
 H       -13.1361118256        6.2365481996        5.6749200738
 H       -11.1779733278        3.7855323121        7.0966198272
 H       -11.3754647990        5.5593662508        7.0809736879
 H       -10.0519607346        4.9153151736        6.3471720616
 H       -15.7968027363       -0.2823485336        2.0949019221
 H       -16.0171280482        0.3755982133        0.4746519892
 H       -16.3665119907        1.4297018049        1.8958998385
 H       -12.1335439161        0.8586395056        1.3481796386
 H       -13.3584932332       -0.3400079148        0.6252561108
 H       -13.3131622448       -0.2427373079        2.3180196042
 H       -15.9528634483        7.1530427831        0.5097301950
 H       -16.7065627482        6.4852079642       -0.8831365484
 H       -16.1678456241        8.1902197124       -0.9720115082
 H       -14.0097229319        8.1567982244       -2.5052122804
 H       -14.8835178601        6.6501277416       -2.9903639408
 H       -13.0646330794        6.5616184087       -2.4158023623
 Na      -11.8788142871        3.6569458432        1.0089484494
