117

 C       -12.9095344078        8.9279441174       -0.2945321526
 C       -13.7126635280        7.6593668215        0.2166139691
 O       -13.8836973929        7.5368858555        1.3710704925
 C       -14.4592568769        6.8152169096       -0.7818073123
 C       -14.2824047509        5.2884717332       -0.5715407937
 O       -13.3984396576        4.8835485132        0.1282072168
 C       -15.2655807636        4.2010709139       -1.2486533692
 C       -15.6345786385        3.1698202640       -0.2351110502
 C       -14.3337359572        2.3443559466        0.1940709619
 O       -13.5963943504        2.0197294259       -0.6937982047
 C       -14.4063702547        1.4292108453        1.5478135814
 C       -14.1191523937        2.2740204124        2.7916285756
 O       -13.2321036457        3.0993551759        2.6856978025
 C       -14.6928948958        2.1149381174        4.2582252910
 C       -14.3218785166        3.5174015970        4.8257784279
 C       -12.7490036900        3.4146549116        5.2596731254
 O       -12.3948399814        2.4360625678        5.9012614406
 C       -11.7218453566        4.6963509834        5.1156940949
 C       -10.7113993177        4.1955200041        3.9022473963
 O       -10.7571921792        4.6456859041        2.7362369335
 C        -9.7362340254        3.1243388630        4.2691742830
 C        -8.5593155487        2.9663872853        3.3355939061
 C        -8.9988796453        2.3441193918        2.0068538399
 O        -9.9613988182        1.6191466672        2.0308899056
 C        -8.1478120747        2.4670411606        0.7399611504
 C        -8.9685877682        3.1004756320       -0.4610303520
 O       -10.0563013258        3.5733860535       -0.4819268911
 C        -8.0887511112        3.0610442159       -1.7584043167
 C        -8.1480713455        4.5189568008       -2.3139435471
 C        -7.7934909535        4.4932615869       -3.7965869890
 O        -8.5067365581        3.9788609457       -4.6274262188
 C        -6.4521466943        5.0593172864       -4.4127128847
 C        -5.4957113055        3.8954210339       -4.7883786680
 O        -4.3499875979        4.0712542098       -4.6189935942
 C        -6.0936251186        2.6599656545       -5.5411413033
 C        -5.0233850413        1.6019761193       -5.3769440357
 C        -4.5572771224        1.3166533332       -3.9461143189
 O        -5.3294358543        1.6837343390       -3.0583187623
 C        -3.2598549785        0.6052861608       -3.4999017004
 C        -3.8749889891       -0.7060735793       -2.9082776418
 O        -4.1480626561       -0.7449165013       -1.7320115122
 C        -4.4111280818       -1.7411247298       -3.8860923457
 C        -2.3192130016        0.2960733128       -4.6706787786
 C        -2.4586073779        1.4709309050       -2.6021533521
 C        -6.7252937553        5.7056716891       -5.9535679409
 C        -5.6183172089        6.1637883724       -3.6645748699
 C        -7.0164599679        3.5532911180        1.0134466423
 C        -7.5512792592        1.1129951024        0.3994082077
 C       -12.4847216339        6.0051806002        4.8621127688
 C       -11.0020365500        4.6777300566        6.5853139213
 C       -15.7760688999        0.7651379138        1.4976766772
 C       -13.2046288038        0.4148866314        1.4834220349
 C       -16.1253639883        7.1565352080       -0.6049778588
 C       -14.1581679654        7.1913241603       -2.3033491827
 H       -12.2028230586        8.7095374940       -1.1266500281
 H       -12.3514159583        9.4114486067        0.5439888067
 H       -13.7278873262        9.6149320410       -0.5427790358
 H       -14.7582895619        3.7670160864       -2.1320943107
 H       -16.1298197912        4.6715137734       -1.7389965003
 H       -16.3850359243        2.3578178216       -0.4019438758
 H       -16.0703352631        3.6316965568        0.6240575657
 H       -14.2128992247        1.3807033922        4.8245004547
 H       -15.7818843875        1.8845987469        4.0591010045
 H       -14.9058591718        3.7605060137        5.7752031332
 H       -14.4698854042        4.2412188889        4.0203095230
 H       -10.2034195877        2.1333351503        4.2825328921
 H        -9.5941384245        3.1141410016        5.3841388684
 H        -7.8583878616        2.3158793478        3.7721517446
 H        -8.2444424512        3.8847743651        3.0370552425
 H        -8.4604825753        2.4579563516       -2.5632381246
 H        -7.0311481259        2.8698490031       -1.5126059668
 H        -7.4603940926        5.2293033566       -1.8284854521
 H        -9.2276575683        4.8879114110       -2.2230005123
 H        -5.9925446210        2.9147809045       -6.5425901314
 H        -7.0177206129        2.1863322630       -5.1999950612
 H        -4.2123241347        1.7752310249       -6.0171312388
 H        -5.3325269967        0.7413717452       -5.9778246868
 H        -4.0288946500       -1.8099217897       -4.8281181657
 H        -5.4133187374       -1.3277351089       -3.9270090771
 H        -4.5052278193       -2.7029644586       -3.4304147287
 H        -1.3066971724        0.0895131168       -4.3072160695
 H        -2.2404087143        1.0107405752       -5.5085850605
 H        -2.5409654620       -0.5633192162       -5.0822611713
 H        -3.1349937225        2.0921063509       -2.1093903068
 H        -1.7779685433        2.0028034361       -3.1334037923
 H        -2.0899023171        0.7052291997       -1.8750145871
 H        -7.1718092858        4.9866644251       -6.5515039463
 H        -5.7984800858        6.0452906866       -6.2782432501
 H        -7.4033081399        6.5857521120       -5.8200708959
 H        -5.9185854605        6.2557918554       -2.6265062551
 H        -5.8048585204        7.1135617127       -4.0174809756
 H        -4.5002924286        6.0665823864       -3.6978486770
 H        -6.6266915270        3.9847119490        0.0797360072
 H        -6.2397747664        2.9987086347        1.4894784093
 H        -7.5696539627        4.3775960562        1.3793217470
 H        -8.4479871382        0.4095863250        0.6660650879
 H        -6.8224995065        0.8570534081        1.2179279000
 H        -7.1437612900        0.8381555904       -0.6054544370
 H       -12.7500840065        6.3027538888        3.8715393768
 H       -11.8618726094        6.7268095652        5.3743218900
 H       -13.4519019246        5.9951875836        5.3634932665
 H       -10.8204152194        3.6175802686        6.7367848213
 H       -11.6669309476        5.0364378416        7.3027649952
 H       -10.0799064067        5.3200442163        6.6591002785
 H       -15.9044907482        0.0410511356        2.3134161421
 H       -15.8687846403        0.2184447338        0.5590775291
 H       -16.4807223842        1.5679387530        1.6253771140
 H       -12.3190109613        0.9460612744        1.5406582216
 H       -13.2599079923       -0.2290328430        0.5383541270
 H       -13.2996303123       -0.2851728591        2.3509947480
 H       -16.3380674774        7.3519539225        0.4734693102
 H       -16.8819488626        6.5119586786       -0.9663041821
 H       -16.0934997696        8.1632936659       -1.0883306174
 H       -14.5577690635        8.2397061475       -2.3566212801
 H       -14.8942794208        6.5798246526       -2.8290100430
 H       -13.1863291479        7.1570958087       -2.6071803192
 Na      -11.8202785271        3.5968322848        0.9214472001
