117

 C       -12.9180792019        8.9588598616       -0.3292186389
 C       -13.8306820580        7.8403142631        0.2002627185
 O       -13.9375535521        7.6067113467        1.3687801056
 C       -14.6136929901        6.9413155018       -0.8237452532
 C       -14.2742624358        5.4151272165       -0.5843019740
 O       -13.3359396461        5.0993046282        0.0963890116
 C       -15.1370383395        4.3415880508       -1.1683033215
 C       -15.4929947317        3.3122500276       -0.1723516327
 C       -14.4411797540        2.1849797220        0.1368993265
 O       -13.4445861074        2.0798749689       -0.6036882004
 C       -14.5327389237        1.4593894861        1.5256164447
 C       -14.1128784792        2.3163543587        2.7507942425
 O       -13.1427317108        2.9831959979        2.7375221221
 C       -14.7811264552        2.2947163222        4.1539107427
 C       -14.3890939107        3.5286218217        4.9923604870
 C       -12.8580121888        3.5554006180        5.2625182357
 O       -12.3694798695        2.5656900640        5.7623276727
 C       -11.8143655197        4.6649869429        5.0593323163
 C       -10.8068111589        4.2762559878        3.9121843848
 O       -10.8026279720        4.8933237907        2.8833397412
 C        -9.7557283803        3.1935392309        4.3550878411
 C        -8.5840023639        2.9043839705        3.3794230637
 C        -9.0463182477        2.2474771617        2.0572182890
 O        -9.9363549466        1.4537330779        2.0034925727
 C        -8.2075065489        2.4973412891        0.8132590971
 C        -8.8447147078        3.0536337736       -0.4463697554
 O        -9.9542004064        3.5033777079       -0.3815722858
 C        -8.0152822776        3.1552470209       -1.7144942519
 C        -8.0765092245        4.5803791995       -2.3711505552
 C        -7.7353298292        4.5264694643       -3.8932935059
 O        -8.5438694770        3.8284922913       -4.5135233204
 C        -6.4316650695        5.0857851933       -4.5171788620
 C        -5.4790748132        3.8021402400       -4.8730412621
 O        -4.2869029288        3.8382142943       -4.7055067316
 C        -6.1447985959        2.5980883413       -5.5051897386
 C        -5.0658699663        1.3960630042       -5.4512764030
 C        -4.6036078650        1.3673681479       -3.9579981924
 O        -5.3143910684        1.7715021974       -3.0962915593
 C        -3.2197773521        0.5559495125       -3.5434133609
 C        -3.8991113598       -0.7837832169       -2.8749671156
 O        -3.9368317643       -0.7862227038       -1.6590792299
 C        -4.3791337650       -1.9642023555       -3.6996638283
 C        -2.2474234282        0.3240516123       -4.8627826695
 C        -2.5011252702        1.4322309749       -2.4029095034
 C        -6.7175940012        5.6086254303       -5.9414366448
 C        -5.5731327998        6.0897304104       -3.7932467686
 C        -6.9506476424        3.6632348288        0.9520740509
 C        -7.7478496933        1.0370256396        0.4551519009
 C       -12.4817425568        5.9847952318        4.7226318530
 C       -11.0296359340        4.7567650162        6.3580398024
 C       -15.8681497120        0.6834253573        1.6785204796
 C       -13.3401286620        0.3732516408        1.5023947548
 C       -16.1561556260        7.1691367778       -0.5672060353
 C       -14.2362115484        7.2294998905       -2.3283484421
 H       -12.2202654340        8.5166605074       -1.0310887664
 H       -12.2526941811        9.2601712477        0.5545322127
 H       -13.4668532851        9.8540010510       -0.6252254931
 H       -14.6530265276        3.8267283721       -2.0561587013
 H       -16.0616130058        4.7328113233       -1.6420911521
 H       -16.3914440865        2.6648627094       -0.4749645310
 H       -15.8686967531        3.6606416684        0.7357023831
 H       -14.4832332824        1.3701071669        4.7307549024
 H       -15.8995791863        2.2517566775        3.9007300737
 H       -14.9410408316        3.5132004511        5.8874164633
 H       -14.6341548055        4.3766215270        4.3570271042
 H       -10.2420053469        2.3143865244        4.6802158450
 H        -9.4543497015        3.4473736870        5.3615090636
 H        -7.8981662061        2.1192019625        3.7724821485
 H        -8.1495802040        3.8837032023        3.1078668350
 H        -8.5138716146        2.6372561352       -2.5847245386
 H        -7.0011152570        2.9060981336       -1.5638741552
 H        -7.4589837979        5.3269839306       -1.9421417627
 H        -9.1737911277        4.9356923438       -2.3674640155
 H        -6.5285402803        2.8972885564       -6.4463816851
 H        -6.7567954640        2.1535119814       -4.7603579630
 H        -4.1665044285        1.4520247896       -6.1183777400
 H        -5.3990274470        0.4637850627       -5.8368898031
 H        -3.7687585610       -2.2100069168       -4.6015997743
 H        -5.3474036414       -1.7568397769       -3.9935931263
 H        -4.4991390659       -2.7715977648       -2.9540833093
 H        -1.5486540521       -0.4403908334       -4.6916522817
 H        -1.7471719901        1.1951896424       -5.1920289348
 H        -2.8185793896       -0.1983088994       -5.7651785764
 H        -3.3068273363        1.5272727394       -1.6966190728
 H        -2.2184322108        2.3877317956       -2.7518502714
 H        -1.8072654802        0.7904496105       -1.9570151908
 H        -7.3109893348        4.8608770421       -6.3844065137
 H        -5.7750661319        5.8374699720       -6.4984447859
 H        -7.3444539239        6.4214620979       -5.9017029631
 H        -5.2234731497        5.7197710127       -2.9259383039
 H        -6.0462443164        7.0310215207       -3.4981460729
 H        -4.7645494838        6.3808781308       -4.3464491444
 H        -6.6667257436        3.9498938650       -0.0363090065
 H        -6.1222625938        3.1846006205        1.4698398238
 H        -7.4772050446        4.5640372952        1.2198577207
 H        -8.7498876448        0.4666252435        0.4279230818
 H        -7.2485961189        0.5739052747        1.2367023254
 H        -7.2955058446        0.9378083410       -0.4777753143
 H       -12.5857627554        6.1742284255        3.6409097186
 H       -11.9213922935        6.8164782826        5.1916081605
 H       -13.5343762311        5.9292850631        4.9740393948
 H       -10.3113397952        3.9237087762        6.5310472425
 H       -11.7724514142        4.8200748999        7.1382226474
 H       -10.5327273555        5.7903956490        6.3355281037
 H       -15.8974765570        0.2697815803        2.6226830223
 H       -15.7934065840       -0.1023549525        0.9294519036
 H       -16.7876550035        1.3308480739        1.5641978022
 H       -12.4190854322        0.9566561315        1.5608740289
 H       -13.3210107521       -0.1248329337        0.5200806898
 H       -13.3673530117       -0.3177695475        2.3067295390
 H       -16.3654361550        7.0838954982        0.5131003922
 H       -16.8837426800        6.4952029815       -1.1017451457
 H       -16.2578094898        8.1998880712       -0.8247741506
 H       -14.5971108163        8.1718953352       -2.5325042050
 H       -14.6286816311        6.4945490712       -3.0300134841
 H       -13.1799692273        7.2596485872       -2.3476302018
 Na      -11.6919682908        3.4462472234        0.8753808795
