117

 C       -12.9056671771        9.0424072104       -0.3452784679
 C       -13.9058675560        8.0078246136        0.1713709597
 O       -14.1758406226        7.8895008757        1.3237604635
 C       -14.6666033291        6.9693737865       -0.8061074230
 C       -14.0888843453        5.6262683740       -0.4994025771
 O       -13.0401665198        5.5437601206        0.0715688662
 C       -14.8148576202        4.4366250375       -0.9886720729
 C       -15.4370821747        3.3384675105        0.0126377295
 C       -14.3729088043        2.3411063717        0.4189982574
 O       -13.3711330370        2.2871666238       -0.1849407917
 C       -14.4819301249        1.3564908079        1.6556711919
 C       -14.0265733737        2.2623876096        2.8122573788
 O       -12.9824714376        2.9069992212        2.6399598821
 C       -15.0273201774        2.7680431193        3.8466276658
 C       -14.4542898905        3.6310097433        5.0243203408
 C       -12.9144421313        3.5018287040        5.2712364403
 O       -12.4170452729        2.4103777554        5.4429474919
 C       -11.9313975652        4.8447921919        4.9781062371
 C       -10.8212557486        4.4065482616        3.9922510127
 O       -10.6971606230        4.9037548137        2.8567775885
 C        -9.8787092471        3.2746863784        4.3683285278
 C        -8.7707267727        3.0352952719        3.4107836268
 C        -9.1042333833        2.3105908905        2.0346139211
 O       -10.1352955529        1.6793208715        1.8165824839
 C        -8.0251848912        2.5116845292        0.7768442069
 C        -8.8386912867        3.1435788021       -0.5443073655
 O        -9.9689637247        3.5473157792       -0.4899891963
 C        -8.0336076064        3.1380859813       -1.8767994831
 C        -7.7263941498        4.5858535939       -2.4739735566
 C        -7.6394521958        4.4081298836       -3.9822247319
 O        -8.5011144774        3.8118769809       -4.5776746364
 C        -6.4297082469        4.9037225407       -4.7335177204
 C        -5.5156396074        3.6339625684       -5.1085350535
 O        -4.3505915286        3.6700107864       -4.9212141658
 C        -6.1518616649        2.2966377858       -5.5607040752
 C        -5.2376636477        1.1372740611       -5.3531966441
 C        -4.7257476195        1.0690467758       -3.8206111628
 O        -5.2860410474        1.8525443504       -3.0146824167
 C        -3.2078154367        0.4112294677       -3.4781628486
 C        -3.6398410842       -1.0074362762       -2.6901948679
 O        -3.5459363088       -1.0874193085       -1.4943828351
 C        -4.1030831534       -2.2268543892       -3.5641853439
 C        -2.3138762117        0.1062080072       -4.7215451891
 C        -2.5906851561        1.4122128404       -2.4965668307
 C        -6.9414540429        5.5057020946       -6.1203946891
 C        -5.5033030496        5.9516806644       -3.9789144279
 C        -6.7339896083        3.0869007013        1.3519538918
 C        -7.4313455494        1.0740316628        0.3783995873
 C       -12.7227333960        5.9661551213        4.3583159318
 C       -11.5211058073        5.4609278504        6.4974169510
 C       -15.9408705997        0.7975656552        1.9532775200
 C       -13.6072597802        0.1209703768        1.5500684313
 C       -16.2974985536        7.2462217271       -0.5652798776
 C       -14.4697784362        7.3691093404       -2.3133786749
 H       -12.0269547606        8.5548779200       -0.7380372602
 H       -12.5973278621        9.5563062618        0.5234916391
 H       -13.4030740087        9.7541786754       -0.9572305028
 H       -14.0775327762        3.8830462963       -1.5727974270
 H       -15.6378027627        4.5950255207       -1.6990351846
 H       -16.2355500541        2.7793792298       -0.3643522484
 H       -15.9317687044        3.7130922157        0.9730336399
 H       -15.7564398991        2.0308455312        4.0931145619
 H       -15.5181951175        3.4557056445        3.1663512024
 H       -14.9965399903        3.2839757909        5.9531688299
 H       -14.7531983850        4.6392435949        4.7959853946
 H       -10.5529631726        2.4007431593        4.6507922740
 H        -9.5332269783        3.4037187967        5.4118475282
 H        -8.0042408849        2.2990273687        3.7185523888
 H        -8.4240375883        4.0623254739        3.1966840222
 H        -8.7441723190        2.8403775856       -2.6209677299
 H        -7.0258582507        2.6299241499       -1.9081929776
 H        -6.7605660259        5.0176251474       -2.1198879580
 H        -8.5018035694        5.2771629869       -2.3648210103
 H        -6.3616958164        2.3509253846       -6.6660790400
 H        -6.9995569594        2.0058908319       -4.8717711228
 H        -4.5466702255        1.1303594456       -6.1832504357
 H        -5.7794029152        0.1630020082       -5.7171775792
 H        -3.1420873740       -2.4216726768       -4.0224777148
 H        -4.8707520025       -2.0402247655       -4.4439055069
 H        -4.5242080886       -3.0263358241       -2.9080270437
 H        -2.1573541163       -1.0392307862       -4.9155513035
 H        -1.3083393159        0.6585143650       -4.5215701750
 H        -2.7085521274        0.3666854078       -5.5986408388
 H        -3.0825769531        1.2419531128       -1.5123438393
 H        -2.8795034620        2.3815257768       -2.8996613694
 H        -1.4275650628        1.1818958498       -2.4456000316
 H        -7.8781691285        5.0054552784       -6.4948894831
 H        -6.0685090885        5.4364018001       -6.7656189530
 H        -7.2918705419        6.6393109877       -5.9269098110
 H        -4.3545495377        5.7892354358       -4.0103834264
 H        -5.6264085647        6.1498285458       -2.9386302076
 H        -5.6043386463        7.0558792964       -4.3794594923
 H        -5.9127405251        2.8840864077        0.6565232171
 H        -6.7211103899        2.6501632071        2.3452299305
 H        -6.9495735514        4.1460388208        1.2610986823
 H        -8.1505253496        0.5405753276       -0.3952688037
 H        -7.3411199039        0.4162259543        1.2557845187
 H        -6.5986548163        1.3205383469       -0.2430158927
 H       -13.4590598902        5.7515709024        3.5754931189
 H       -11.9666458141        6.6249897403        3.9123018796
 H       -13.4399073283        6.3893013069        5.0764463972
 H       -11.4772617698        4.5635356590        7.1108795044
 H       -12.3400569906        6.1143929803        6.7542472204
 H       -10.5385370109        5.9209386613        6.5657864695
 H       -16.0484785559        0.5062747933        3.0498649078
 H       -16.2824256827        0.0689810192        1.2069139517
 H       -16.5656540031        1.6453722731        1.8811133349
 H       -12.6283590253        0.4373623068        1.3475008940
 H       -13.8770105657       -0.4344287389        0.6331021490
 H       -13.6007325512       -0.3723928487        2.5516240051
 H       -16.7302878339        6.7303979560        0.2878942698
 H       -16.7669494258        6.8890286542       -1.4131500242
 H       -16.4349991009        8.3288350794       -0.3201334471
 H       -14.8027383850        8.5004879961       -2.2388211494
 H       -15.2543243673        6.8428074262       -2.8883750002
 H       -13.5025158902        7.1814632110       -2.7448085243
 Na      -11.5860088066        3.2243290310        0.9709133286
