117

 C       -12.9265514472        9.1077928713       -0.3562688292
 C       -14.0029137425        8.1808055099        0.2367533749
 O       -14.4459617104        8.3409363643        1.3992699308
 C       -14.7067198616        6.9935393589       -0.7490229356
 C       -14.0705856697        5.6510040730       -0.5262990020
 O       -12.9823605463        5.4537612001        0.0943073090
 C       -14.8098036610        4.4296745434       -0.9885348873
 C       -15.2641229545        3.5009598747        0.1754445442
 C       -14.3032572523        2.3246936913        0.5282055893
 O       -13.1587009137        2.2145704432       -0.0175155866
 C       -14.6489729369        1.5165685002        1.7038378111
 C       -14.1373044328        2.4617654553        2.9347180793
 O       -12.9686294743        2.7033142866        3.0035725302
 C       -15.2236441270        3.1621420018        3.8853632929
 C       -14.5617754667        3.7327791203        5.1892518850
 C       -13.0273242646        3.5984409543        5.1747971705
 O       -12.3981187900        2.5976024812        5.4645885870
 C       -12.1500805823        4.9240622265        4.7643257912
 C       -10.9332993826        4.3516007410        3.8738886333
 O       -10.7913990962        4.8951110954        2.8067349251
 C       -10.0179939188        3.1579284120        4.2300382607
 C        -8.7646902915        3.2316248576        3.3868741319
 C        -9.0113347291        2.4102768752        1.9621359848
 O       -10.0951407671        1.9175021425        1.7143565414
 C        -7.9073514874        2.3367784549        0.8354392407
 C        -8.5009015274        3.0390665583       -0.4954936834
 O        -9.5724541880        3.6708366859       -0.3098733863
 C        -7.8184073444        2.9541489624       -1.8880181317
 C        -7.4768300415        4.3469824411       -2.3827928767
 C        -7.5460477237        4.2983392837       -3.9653647074
 O        -8.6029215125        3.9534000613       -4.5272423928
 C        -6.3779366408        4.7499431521       -4.9495450383
 C        -5.4968485725        3.4904065490       -5.2854775162
 O        -4.2565514049        3.6183996644       -5.2738944340
 C        -6.1503865520        2.1912663615       -5.5889440654
 C        -5.3371684942        0.8234932483       -5.1433699875
 C        -4.7856196106        0.8857057063       -3.7360006538
 O        -5.2878133906        1.4368058317       -2.7849736771
 C        -3.2515675867        0.2515346701       -3.4212759794
 C        -3.5635025815       -1.0494075160       -2.5933573847
 O        -3.2561504044       -1.2086356226       -1.4251996036
 C        -3.8781694081       -2.3428180210       -3.4737631102
 C        -2.3403540338       -0.0613991245       -4.6262566942
 C        -2.5252858767        1.3062655121       -2.4700948267
 C        -6.9870011269        5.3047209975       -6.3327992313
 C        -5.4700266146        5.8808413639       -4.4592804651
 C        -6.6506033973        3.2012918354        1.2075750188
 C        -7.8262567313        0.8562278093        0.4691662246
 C       -12.9247264517        5.9879040953        3.7921314459
 C       -11.7911085373        5.4310577580        6.1472879997
 C       -16.1297803893        1.1458616676        1.8296681567
 C       -13.8195964318        0.2646826478        1.7342789642
 C       -16.1045014985        6.9256332958       -0.3245204323
 C       -14.4561038857        7.4500992189       -2.2033858065
 H       -12.0627990722        8.4517454291       -0.5655850320
 H       -12.5495633195        9.9202045106        0.2854786651
 H       -13.4174218123        9.5180880491       -1.2927965830
 H       -14.1458235425        3.8502579007       -1.6620208245
 H       -15.8220227990        4.5380206091       -1.4592483236
 H       -16.2555663920        2.9730898949       -0.0688257476
 H       -15.5064899623        4.0194167798        1.0651335186
 H       -16.0507679491        2.3685868409        3.9795948291
 H       -15.7908237807        3.9827138686        3.4124081519
 H       -14.9648365328        3.1920651704        6.0392543909
 H       -14.9176415321        4.8034977615        5.3133979619
 H       -10.5643260742        2.2200977202        4.2069857590
 H        -9.8185681229        3.1320390956        5.3086744437
 H        -7.9664964174        2.6659985512        3.8064569467
 H        -8.4925300096        4.2526563785        3.2437497695
 H        -8.4986721248        2.3462033659       -2.5096695135
 H        -6.8626694617        2.5433798692       -1.7264472218
 H        -6.5523116653        4.6572671483       -1.8684042849
 H        -8.3810146010        5.0391226247       -2.1515777168
 H        -6.3518855447        2.1201730481       -6.6582837313
 H        -7.0317000130        2.2235930743       -4.9818783793
 H        -4.5748848942        0.7842960514       -5.9867023905
 H        -5.8884462800       -0.0297399230       -5.3665647975
 H        -2.9401918602       -2.8683031269       -3.6359771444
 H        -4.1038612690       -2.0534705534       -4.4414807075
 H        -4.6869246302       -2.8451550674       -3.0934747042
 H        -2.5944971375       -0.8394784678       -5.2889062009
 H        -1.3896257527       -0.1157843739       -4.2295043408
 H        -2.4751850471        0.9181999620       -5.2418417758
 H        -3.1984386649        1.7739092423       -1.7798841777
 H        -2.1890372392        2.0261914064       -3.2566676668
 H        -1.7199940838        0.8732337792       -2.0789041370
 H        -7.5964842700        4.5358196833       -6.8083456756
 H        -6.1104342296        5.5037169531       -6.9654195424
 H        -7.5457131414        6.1243449711       -6.1854971093
 H        -4.8711223129        6.2133655381       -5.2590706349
 H        -4.6750099842        5.6605030414       -3.7016400820
 H        -5.8921791735        6.7527169435       -4.1269301369
 H        -6.3320578000        3.4451715263        0.2360259387
 H        -6.0522432719        2.4986086971        1.7911237635
 H        -6.9261003999        4.0734003993        1.8271577028
 H        -8.6865965739        0.4852061781        0.1522711100
 H        -7.5339176165        0.3201957994        1.4237407782
 H        -7.1763668148        0.7553266285       -0.4546147731
 H       -13.2792379940        5.5273144095        2.8932946932
 H       -12.2784531081        6.7204516639        3.3964882526
 H       -13.8246562206        6.3123668839        4.2162057301
 H       -11.9840468043        4.8018599647        6.9830648169
 H       -12.3162214835        6.4170048917        6.1487817145
 H       -10.7452118875        5.5054864236        6.1642845011
 H       -16.1402678219        0.2937508272        2.4413225077
 H       -16.4627835019        0.9357944514        0.8277181792
 H       -16.8512915049        1.8833508821        2.2487211291
 H       -12.7215955650        0.5083746083        1.4266671879
 H       -14.1191893491       -0.3716759937        0.9533118582
 H       -13.8188612169       -0.0785014767        2.7379022300
 H       -16.2384649872        6.8063964770        0.7350421742
 H       -16.6406006324        6.1100927854       -0.9156933703
 H       -16.5216542205        7.8804106237       -0.4953823756
 H       -14.8408120891        8.3644756570       -2.4182513539
 H       -14.8231155667        6.6727977934       -2.8187232564
 H       -13.3179495033        7.3922900084       -2.2662288069
 Na      -11.5933757072        3.6486880061        1.0030048819
