117

 C       -12.9330390636        9.1042816190       -0.2779825181
 C       -13.9794968993        8.1640669866        0.2538058661
 O       -14.5353432455        8.4798042754        1.2830554602
 C       -14.6571716118        6.9931973835       -0.5958709994
 C       -13.9835267918        5.6165052845       -0.4463923895
 O       -12.9378300659        5.4823201929        0.1492856367
 C       -14.7506871111        4.4513739273       -1.1706335885
 C       -15.2564516769        3.5613614226        0.0920212094
 C       -14.2022981100        2.4584212327        0.5303413098
 O       -13.2136794767        2.2281885065       -0.0759387797
 C       -14.7482453494        1.5954846426        1.8241026993
 C       -14.2902029497        2.4432731639        2.9734206553
 O       -13.0804346738        2.6890340446        2.9911274071
 C       -15.1992170552        3.1682548583        3.9412930688
 C       -14.5756742191        3.6100124456        5.2342447518
 C       -13.1027350719        3.5872205055        5.1716679432
 O       -12.5685073285        2.6944964535        5.7892277857
 C       -12.1919880222        4.7934666139        4.5809390200
 C       -11.0142472108        4.4016093529        3.6643524275
 O       -10.7308368097        4.9592533541        2.6064545431
 C       -10.1383405779        3.2941706850        4.1859158849
 C        -8.8248187648        3.2011450027        3.3637699569
 C        -9.0010282713        2.5129465181        2.0375620201
 O       -10.0479003424        1.9555223513        1.8048767551
 C        -7.8945762501        2.2535870713        0.8166861032
 C        -8.5041771073        3.0906464411       -0.4823547137
 O        -9.4387846849        3.8809444454       -0.4290388057
 C        -7.6967135372        3.0257651032       -1.7869826949
 C        -7.2663770672        4.3925602774       -2.5687234649
 C        -7.5230944936        4.3321721443       -4.0660042989
 O        -8.6222446736        4.0126985505       -4.4364161722
 C        -6.3251496861        4.6208279089       -5.0822398305
 C        -5.3612355743        3.3604378430       -5.3491697779
 O        -4.1626266533        3.5709803363       -5.4044354498
 C        -6.1516074845        1.9506319286       -5.4324474522
 C        -5.1934250681        0.7662304908       -5.0828263688
 C        -4.7242105167        0.8187004130       -3.6826980250
 O        -5.4099258562        1.2337657169       -2.7315138389
 C        -3.2088495039        0.2345848834       -3.4611709577
 C        -3.3460312364       -1.1676722892       -2.6486934963
 O        -3.2218678696       -1.0953254985       -1.4405467256
 C        -3.9394040986       -2.4234298644       -3.3388083219
 C        -2.4146698774        0.1223104451       -4.7130742809
 C        -2.5704849500        1.1397485020       -2.4429060736
 C        -7.0771686262        5.0104420315       -6.3841970107
 C        -5.5492125054        5.8077286451       -4.4154206508
 C        -6.5460142583        3.0758936356        0.9776606609
 C        -7.8168055965        0.7275509809        0.7346686788
 C       -12.8731631344        5.8868305872        3.7487434134
 C       -11.7305899775        5.5398150912        5.9200665005
 C       -16.2889920137        1.2799388843        1.7154989407
 C       -13.8698785821        0.3293587709        1.9704823865
 C       -16.1869361925        6.9172692768       -0.1711141434
 C       -14.4510339554        7.3386011802       -2.1568889381
 H       -12.0618869522        8.4255728881       -0.5360110112
 H       -12.5841983959        9.7270070075        0.5047239456
 H       -13.3377783011        9.7164198029       -1.1476494220
 H       -13.9933613285        3.8136340061       -1.6790907153
 H       -15.6889080102        4.6292781222       -1.7844209199
 H       -16.2004831773        3.0878290470        0.0763496258
 H       -15.3028059443        4.2358800853        0.9959324601
 H       -16.1470241010        2.4841481067        3.9663416469
 H       -15.6554296921        4.0894513461        3.5236738754
 H       -14.9422622851        3.0440364694        6.0561176585
 H       -14.9438038676        4.5933542972        5.4032396533
 H       -10.6413757468        2.3352882637        4.3054412742
 H        -9.9273686275        3.4436415320        5.1758557844
 H        -8.0991350232        2.5640155455        3.9699102088
 H        -8.3285950695        4.2081570802        3.1536798166
 H        -8.5434489390        2.5517063319       -2.3023147037
 H        -6.8361910806        2.3223907546       -1.6849956210
 H        -6.2008395285        4.6394905300       -2.2455261904
 H        -7.9689980447        5.0492489805       -2.1553000501
 H        -6.4569046258        1.8959721487       -6.5173343374
 H        -6.9962643129        1.9121821023       -4.7954661923
 H        -4.5408481696        0.7634463642       -5.9527489952
 H        -5.8093975456       -0.1592815344       -5.1399816601
 H        -3.1187408080       -3.0657111517       -3.4273818149
 H        -4.2811772752       -2.3110984180       -4.3950919544
 H        -4.7129379144       -2.7368396478       -2.6946711871
 H        -3.0450441047       -0.2984142301       -5.5474329450
 H        -1.6396932826       -0.6530561928       -4.4307081862
 H        -2.0091608809        0.9859686164       -4.9948261936
 H        -3.3093905609        1.6657218855       -1.9422570258
 H        -1.9097921664        1.7982743675       -2.9873614837
 H        -1.9152482117        0.5392107723       -1.7484553695
 H        -7.6184899626        4.1407880348       -6.7738114662
 H        -6.4300413206        5.3376759016       -7.1182298235
 H        -7.8023035494        5.8645979912       -6.1449715952
 H        -5.1851733380        6.5439915868       -5.0883396750
 H        -4.7490583409        5.5443609919       -3.9115347077
 H        -6.1295611137        6.4411190499       -3.7959372586
 H        -6.2472409870        3.2676590177       -0.0381847032
 H        -5.9583718185        2.3152978698        1.4497057169
 H        -6.6749353650        3.8922127953        1.6931384570
 H        -8.8230568449        0.3104027231        0.5785409184
 H        -7.4397283228        0.4570091839        1.6827215016
 H        -7.2831137051        0.3977410578       -0.0612890067
 H       -13.0544775331        5.7370081733        2.6958694093
 H       -12.1991409512        6.7218506191        3.6848757185
 H       -13.8134496599        6.1109182510        4.2549326348
 H       -11.8283111933        4.9709036413        6.8746511017
 H       -12.2958861337        6.5080442151        5.8566842110
 H       -10.6877838967        5.6587071004        5.8196652582
 H       -16.5272302224        0.5185163269        2.5248782611
 H       -16.4641844408        0.8891718263        0.7331817784
 H       -16.9367250412        2.1066176648        1.8185665516
 H       -12.8008205589        0.4203030164        1.8629564098
 H       -14.1614912884       -0.2523269614        1.1462145438
 H       -14.1157098542       -0.0928087091        2.9453434223
 H       -16.4102152662        6.9269093208        0.8810417184
 H       -16.5024513247        5.9931865323       -0.6669686259
 H       -16.8003601780        7.7637033338       -0.5725794954
 H       -15.1381291631        8.1599320913       -2.3947197392
 H       -14.6010248942        6.4982872029       -2.7107044662
 H       -13.4307000879        7.6669995466       -2.3189953704
 Na      -11.6008419203        3.9373070046        0.9861718788
