117

 C       -12.8393489939        9.0148020757       -0.2682707130
 C       -14.1348626339        8.2730891345        0.3069801271
 O       -14.6329292968        8.5300125694        1.3275424525
 C       -14.6787028245        7.0658373119       -0.6390430092
 C       -13.9046628681        5.6098164797       -0.4494434603
 O       -12.9138731237        5.6048463267        0.1971477332
 C       -14.4758170105        4.4211317246       -1.0539242340
 C       -15.2595514991        3.5636177788       -0.0456114591
 C       -14.3935666177        2.4399906549        0.4194363992
 O       -13.2894995777        2.2752111922       -0.0038164992
 C       -14.8229848539        1.5871120478        1.7052327205
 C       -14.3494723944        2.5678808501        2.9158160626
 O       -13.1578752492        2.8188414138        3.1037343064
 C       -15.4087851101        3.1967622728        3.8899835997
 C       -14.6857133806        3.6292627099        5.1873448449
 C       -13.0231236530        3.5953412127        5.2426509114
 O       -12.4896968563        2.8479300092        6.0387707913
 C       -12.2428476232        4.8890227483        4.4987206207
 C       -11.0185698832        4.4003285541        3.6564410253
 O       -10.7449193518        5.0730861833        2.6264095798
 C        -9.9796951527        3.3065484238        4.1728632374
 C        -8.6288815410        3.1215138093        3.3193156669
 C        -9.0925851821        2.5843953256        1.9635115525
 O       -10.1663237548        2.0288231210        1.8336333319
 C        -7.9530403180        2.4038187837        0.8302828412
 C        -8.5052554723        3.2479567320       -0.5249460655
 O        -9.4109338566        3.9958956197       -0.4319493786
 C        -7.6763312663        2.9959195456       -1.8280976451
 C        -7.1294862488        4.2808383727       -2.4875031363
 C        -7.5160273846        4.1511907753       -3.9995639105
 O        -8.6279332235        4.0347671320       -4.4133695250
 C        -6.4034378730        4.5609579148       -5.0653784585
 C        -5.3926713781        3.3564737059       -5.2840464203
 O        -4.2306300193        3.3651082317       -5.5505821069
 C        -6.1464456542        1.9354841715       -5.2682609514
 C        -5.1390975575        0.7611407153       -5.1319129414
 C        -4.6140493030        0.6655050416       -3.7090094950
 O        -5.3720006133        0.9592128975       -2.7684754852
 C        -3.1864547638        0.2466129924       -3.3921602718
 C        -3.4671360500       -1.2169009467       -2.5926382804
 O        -3.1575938951       -1.2031231040       -1.4362313721
 C        -3.9543497933       -2.4426179764       -3.2622858069
 C        -2.3621271331        0.1065530558       -4.7829068716
 C        -2.4527347220        1.2593658166       -2.3255956644
 C        -7.0711823485        4.7497068210       -6.4298046438
 C        -5.6170769976        5.7336415403       -4.5535391368
 C        -6.4243082269        2.8409596758        1.0389422927
 C        -7.7595580790        0.8626551173        0.8176157460
 C       -13.1830814392        5.8323294637        3.7061163782
 C       -11.4949132390        5.6658346577        5.7081925221
 C       -16.3006857405        1.4035924621        1.6509576727
 C       -13.9981557250        0.2619751922        2.0390580037
 C       -16.1683751592        6.9862367000       -0.1688780878
 C       -14.5769474375        7.3117301400       -2.1451558958
 H       -12.0636426585        8.3493692981       -0.6627120782
 H       -12.3868192690        9.5196275585        0.6340327096
 H       -13.1343746601        9.7564281743       -0.9562305674
 H       -13.6976471763        3.6897732139       -1.4142114255
 H       -15.2541403055        4.6622413113       -1.7432828861
 H       -16.0867538506        3.0591242123       -0.4776416230
 H       -15.6174086244        4.1370603568        0.8700806525
 H       -16.1614704977        2.4870380152        4.0067121328
 H       -16.0066995418        4.0201538184        3.4125140380
 H       -15.0354819202        2.9009593138        5.9247141959
 H       -15.0680914514        4.5052483202        5.5972840634
 H       -10.4250761512        2.3175840423        4.0908312835
 H        -9.8132605021        3.3041115900        5.2709084759
 H        -7.8867522111        2.4882350197        3.9720172300
 H        -8.0796028059        4.0404387887        2.8928241361
 H        -8.4935686852        2.4882695597       -2.3590757238
 H        -6.8483222112        2.2465057354       -1.6250103918
 H        -6.0698261030        4.1508243185       -2.4473951691
 H        -7.4854891788        5.0601495075       -1.8807534625
 H        -6.6917133998        1.8941578045       -6.2386779468
 H        -6.9049636597        1.7309596523       -4.4481721373
 H        -4.5375305902        0.8684560565       -6.0125972923
 H        -5.8957045015       -0.1261208917       -5.3080446000
 H        -3.0348485534       -3.0390053222       -3.2224111826
 H        -4.2873888652       -2.4415907026       -4.3195575219
 H        -4.7787864338       -2.7716544507       -2.5184436906
 H        -2.9871412189       -0.4262721520       -5.5152038074
 H        -1.5402194686       -0.6065071912       -4.5227257604
 H        -2.0211766504        1.1418697853       -5.1753897363
 H        -3.2490360602        1.7066164049       -1.6312088601
 H        -1.9253882506        2.0005603262       -2.8529274447
 H        -1.6862851056        0.5858954813       -1.7508225263
 H        -7.4862686994        3.8155952204       -6.8042412973
 H        -6.2488232927        5.0401555691       -7.1706208741
 H        -7.8227952297        5.6304420774       -6.3908264263
 H        -5.3143771540        6.4695115143       -5.2627546263
 H        -4.6702710916        5.3829785891       -4.0947795883
 H        -6.0712545719        6.4200480498       -3.8540819361
 H        -6.0091892911        2.6244596122        0.0236592356
 H        -6.0720154947        2.0521643075        1.6828337833
 H        -6.3092782229        3.7636978967        1.5635237215
 H        -8.7090053672        0.2008983035        0.7227843517
 H        -7.1969206885        0.7218217613        1.6657576893
 H        -7.1086900283        0.6191827002       -0.0087987487
 H       -13.4691864076        5.5783611364        2.6588036318
 H       -12.5651116417        6.7265170360        3.4665186227
 H       -14.0659995355        6.0757267312        4.3594376235
 H       -11.2395861207        4.8455656290        6.4315181262
 H       -12.1445252945        6.4027165511        6.0732779431
 H       -10.4147779854        5.9773085596        5.4146001000
 H       -16.6593976768        1.0381247588        2.6290879161
 H       -16.6199824585        0.7633472963        0.8119005062
 H       -16.7465434666        2.3570186066        1.4406558475
 H       -13.0103839057        0.3520546917        2.2203807377
 H       -14.1196403880       -0.3951201704        1.1330476215
 H       -14.5054965403       -0.1429256324        2.9186275502
 H       -16.1093100123        7.0034274032        0.9505239859
 H       -16.6360945378        6.1054544811       -0.4808081002
 H       -16.8602065380        7.8584796209       -0.4136754754
 H       -15.3802342470        8.0950202599       -2.2860269487
 H       -14.8455670468        6.3291656693       -2.6689183397
 H       -13.6765209923        7.6563314135       -2.4727422369
 Na      -11.4948631049        3.9880811980        0.8662764309
