117

 C       -12.7572659070        8.8585181053       -0.2021452431
 C       -14.1084762720        8.2481954093        0.2394892104
 O       -14.6635457891        8.5923545640        1.3287236394
 C       -14.7534512815        7.1400820108       -0.6205423308
 C       -13.9197710558        5.8505662509       -0.3367019010
 O       -12.8446829695        5.9050693675        0.2998004344
 C       -14.3721376407        4.4657178995       -1.0384924172
 C       -15.3111831862        3.4838030551       -0.2755210361
 C       -14.3336339439        2.3580245521        0.4543117925
 O       -13.1506876649        2.2425980918        0.0513948942
 C       -14.9862248804        1.7006064714        1.7581353432
 C       -14.4357326217        2.6428884161        2.8788551399
 O       -13.2501097900        2.8536453075        3.0064403982
 C       -15.3855272090        3.1964438437        3.9300839983
 C       -14.6258064866        3.6393595851        5.2166710222
 C       -13.0675218650        3.8242867930        5.3051962920
 O       -12.4221796396        3.1409278825        6.0565563570
 C       -12.2410781584        4.9483148936        4.6307643574
 C       -10.9113317226        4.4106538879        3.7044798972
 O       -10.7358606420        5.1098253706        2.7000764395
 C        -9.9708347212        3.3957211943        4.1644296167
 C        -8.7357868276        3.2103080863        3.3189357921
 C        -8.9784682479        2.6290741695        1.8934241652
 O       -10.1349877152        2.2644381882        1.6935348868
 C        -7.8986672899        2.4166675638        0.9013789960
 C        -8.4135907538        3.1855679513       -0.4330762398
 O        -9.3271615495        4.0139439364       -0.4201487809
 C        -7.7857817213        2.8320449441       -1.8306549420
 C        -7.0671312406        4.0249693803       -2.5058490192
 C        -7.4628704791        4.1786070990       -4.0263614701
 O        -8.6625459703        3.9665678571       -4.2291534059
 C        -6.3746057824        4.4653576361       -5.0576966855
 C        -5.5317628713        3.1387667554       -5.2208123195
 O        -4.3863091218        3.3125655848       -5.5987239693
 C        -6.2274264690        1.8271240222       -5.1754955581
 C        -5.2106110827        0.7290248729       -5.1275687520
 C        -4.5929632663        0.6589994999       -3.7228956313
 O        -5.3420018417        0.6961871355       -2.7824301612
 C        -3.1485396815        0.1528054495       -3.3420429880
 C        -3.3507323046       -1.2341915359       -2.4922924702
 O        -3.0924497712       -1.2805344708       -1.3138882976
 C        -3.9430517893       -2.4209570471       -3.3190595600
 C        -2.1398581708       -0.0463844412       -4.5567087803
 C        -2.4548848622        1.2227399030       -2.4926818098
 C        -7.0001618266        4.5776328787       -6.4870045016
 C        -5.5593931492        5.7463572186       -4.7844233200
 C        -6.5198538354        2.9188613448        1.3192664772
 C        -7.9386329242        0.8805238873        0.5186698546
 C       -13.2741953996        5.6560067402        3.8189408089
 C       -11.4067614526        5.7911371308        5.5549273103
 C       -16.4303354307        1.4508430787        1.7072518748
 C       -14.2633511612        0.3373096257        1.9126897731
 C       -16.1868447499        6.8650116405       -0.2279560909
 C       -14.7796906665        7.4489109698       -2.1668714107
 H       -12.0858998113        8.2476735724       -0.7539639011
 H       -12.2724835816        9.3127166061        0.6828448226
 H       -13.1434905010        9.6674718125       -0.7739911965
 H       -13.5138472229        3.8157609692       -1.1146141916
 H       -14.8763769551        4.6937911932       -1.9327555849
 H       -16.0987552933        2.8511194077       -0.8698133243
 H       -15.7717000201        3.9858364140        0.5544141373
 H       -16.2487292298        2.6504025794        4.0610194549
 H       -15.7852275611        4.0471358013        3.4079827927
 H       -14.9769870049        2.9129495314        5.9779352081
 H       -15.1332161028        4.5285875100        5.6732936915
 H       -10.3842701264        2.4134652926        4.4839032452
 H        -9.5199787385        3.7081665589        5.2302633016
 H        -8.1943818216        2.5547106885        4.0397743491
 H        -8.1273101913        4.1113148878        3.2113958345
 H        -8.6852581152        2.4370917011       -2.3576628045
 H        -7.0975618156        2.0202647885       -1.6611443071
 H        -6.0641415342        3.8832851603       -2.3586897526
 H        -7.4239676490        4.8673524732       -1.8306288979
 H        -7.0735889906        1.8499643113       -5.8962687008
 H        -6.6755531702        1.7464853164       -4.1004628399
 H        -4.4707587102        1.2616175537       -5.7966014398
 H        -5.6144484724       -0.1411746810       -5.6990420368
 H        -3.1502640608       -3.2469895037       -3.5692328407
 H        -4.3209190110       -2.0388343945       -4.2687785612
 H        -4.8424388621       -2.6356700084       -2.6850782838
 H        -2.3355771804       -1.0010290415       -5.0378153986
 H        -1.1350504851       -0.1060780485       -4.1862861893
 H        -2.3590564627        0.8903562767       -5.2926026001
 H        -3.2178805732        1.3272286098       -1.6252738090
 H        -2.2409498110        2.2249005666       -3.0274580656
 H        -1.5542707428        0.7723205061       -2.1854275562
 H        -7.5242453935        3.6107192483       -6.7728454007
 H        -6.1811835873        4.7690621186       -7.3151901294
 H        -7.6310475665        5.4279503863       -6.4663219639
 H        -5.2917111630        6.3407371176       -5.6832986239
 H        -4.5420980234        5.7045851802       -4.1609008175
 H        -6.1211532675        6.5665069952       -4.3052255669
 H        -5.8905430282        2.3063942893        0.6904524589
 H        -6.3632881359        2.7364597264        2.3938268527
 H        -6.5885222903        3.9984681546        1.1876855534
 H        -8.8618691024        0.5936820853        0.1436773418
 H        -7.5358987251        0.3866257735        1.5077809920
 H        -7.0668449310        0.6108081655       -0.2981327343
 H       -13.6216698304        4.9165992708        3.0587636302
 H       -12.8767087966        6.4017121337        3.0710492794
 H       -14.1349738403        6.0366037222        4.4312307549
 H       -10.5787208425        5.1952433461        5.8686934147
 H       -12.0420675075        6.1006928118        6.3784572051
 H       -10.8965129613        6.6065261739        4.9788046758
 H       -16.7363550394        1.1343663990        2.6510615244
 H       -16.6270869303        0.6433418479        0.9761948391
 H       -17.0177094769        2.3479884714        1.3229094624
 H       -13.1462796158        0.5317634682        2.1657614456
 H       -14.3021362699       -0.1956738042        0.9498771194
 H       -14.7016756235       -0.2371418390        2.7096939937
 H       -16.1742702778        6.7960401447        0.8759721859
 H       -16.7569130671        6.0645197269       -0.7228459272
 H       -16.7482979499        7.7587666661       -0.3878139339
 H       -15.2843180154        8.3770434671       -2.2701950636
 H       -15.2500053024        6.5552477544       -2.7077980739
 H       -13.6697245432        7.5767802479       -2.4956553810
 Na      -11.3422735738        3.8598874103        0.6918877110
