117

 C       -12.7298403228        8.7866472021       -0.1577846589
 C       -14.0875785609        8.2684246460        0.2370075196
 O       -14.6642077785        8.6291292854        1.2644381981
 C       -14.8058841172        7.1201298757       -0.5384732053
 C       -13.9447924946        5.9323010351       -0.3404566604
 O       -12.8870284294        6.0196992019        0.3428503969
 C       -14.2158097936        4.5962437657       -1.1381658554
 C       -15.0284798074        3.5191946968       -0.4577956949
 C       -14.3488924836        2.4603413444        0.5544495413
 O       -13.1850534220        2.1728425695        0.2351064481
 C       -15.0711623960        1.7538018791        1.6969821089
 C       -14.4070357465        2.6173447639        2.9075722877
 O       -13.2315826128        2.8071787582        2.7881682214
 C       -15.2553976384        3.3176323764        4.0656598795
 C       -14.4733552100        3.6789695419        5.3693182206
 C       -12.9649539772        3.8711847615        5.4228841650
 O       -12.3672356582        3.1658345392        6.2315334528
 C       -12.2494265466        5.0005341079        4.5588950372
 C       -11.0132217060        4.5017286189        3.6297994098
 O       -10.7457874097        5.0771210429        2.6407389442
 C       -10.0601836458        3.4425962194        4.3201046509
 C        -8.7841738190        3.3226230827        3.4058492567
 C        -9.0728081581        2.6071661882        1.9343699937
 O       -10.2033051024        2.4144263069        1.5423446021
 C        -7.8781325291        2.3984346964        0.8964368956
 C        -8.3301999816        3.0624788058       -0.4117063026
 O        -9.1556564283        4.0108530011       -0.4226823801
 C        -7.7919213701        2.7532752483       -1.8306826656
 C        -6.9479269477        3.8604137880       -2.4789539454
 C        -7.5072445242        4.1656263255       -3.9366794604
 O        -8.6705403604        3.9293380056       -4.2162888662
 C        -6.5110754890        4.4801944273       -5.0768420171
 C        -5.6168953207        3.1158014737       -5.2481128917
 O        -4.4473033772        3.1837997389       -5.5778429285
 C        -6.1787735424        1.7351816029       -5.0423527811
 C        -5.0469767248        0.5960766215       -5.0318021835
 C        -4.5594271351        0.3495385527       -3.6480992214
 O        -5.3740623141        0.5537333715       -2.7745708974
 C        -3.0298132353        0.0673204710       -3.2783561459
 C        -3.2174029002       -1.2284149454       -2.5035287710
 O        -3.0160066370       -1.3241826688       -1.3143320407
 C        -3.9480325597       -2.3855666810       -3.3214194514
 C        -2.0194732968       -0.2652152155       -4.4742483856
 C        -2.5479485744        1.2440158196       -2.5094489695
 C        -7.1409608867        4.5172768131       -6.5599132883
 C        -5.5561212850        5.6274649175       -4.9268946558
 C        -6.5450084367        3.0481078568        1.4692680578
 C        -8.0327248168        0.8900779447        0.3029355909
 C       -13.2280064548        5.8917363944        3.6799133660
 C       -11.5083602985        6.0987279931        5.5974663320
 C       -16.6208361042        1.5582288166        1.7080957901
 C       -14.3576156064        0.3063253007        1.7588794738
 C       -16.3215479392        6.7226750164       -0.1936280801
 C       -14.8426951937        7.6277141163       -2.1518930412
 H       -12.2777718937        7.9797142765       -0.7541170458
 H       -12.1757680386        9.0171405728        0.6866990108
 H       -12.8333913569        9.6943341262       -0.8119419299
 H       -13.3141047099        4.0934016659       -1.4064730876
 H       -14.9412744480        4.8977420361       -1.9115652065
 H       -15.3054213276        2.7460168735       -1.2605919469
 H       -15.9084134723        3.9508500569       -0.0244220750
 H       -16.1741214799        2.6815772951        4.3327801632
 H       -15.7240737527        4.0925638805        3.5394305473
 H       -14.8321377150        2.8930546238        6.0427747331
 H       -14.9666781975        4.5473772720        5.9444475000
 H       -10.5730156076        2.4307878904        4.5297050516
 H        -9.7366467109        3.7145092880        5.3373874540
 H        -8.1062918510        2.8056541377        3.9820917178
 H        -8.3443332910        4.2800757957        3.2380110263
 H        -8.6860084873        2.6553147902       -2.4631308189
 H        -7.2880357958        1.8130060373       -1.7820356101
 H        -5.8218687697        3.6631104811       -2.4253942478
 H        -7.1773419771        4.7600837330       -1.8407071914
 H        -6.9499600337        1.6189915752       -5.8494451861
 H        -6.6894192956        1.5785052693       -4.0833558695
 H        -4.2768847128        1.0137677349       -5.7565585674
 H        -5.5549803604       -0.1560399762       -5.5223717985
 H        -3.1811824119       -3.1074567775       -3.5914444396
 H        -4.1898859522       -1.9157401177       -4.3000352592
 H        -4.8420737679       -2.6738568386       -2.8766267471
 H        -1.9769682301       -1.3872752690       -4.5660424515
 H        -1.0094554912        0.0495763976       -4.2394115358
 H        -2.3708195026        0.1654071316       -5.2680742095
 H        -3.1125405138        1.0909266300       -1.6519845558
 H        -2.7842976932        2.2566153513       -2.9901270182
 H        -1.4847593034        1.1612192181       -2.3524479796
 H        -7.8035801488        3.6256074590       -6.6866786754
 H        -6.4026246119        4.4697366231       -7.2812453918
 H        -7.6371041327        5.4777370221       -6.7096314599
 H        -4.9943043933        5.9272728573       -5.8776041285
 H        -4.8428448160        5.5761835945       -4.1615408406
 H        -6.0397058869        6.6491864904       -4.7814011748
 H        -5.6960799701        2.4345248122        1.2651339677
 H        -6.6697342888        3.2484511473        2.5420214013
 H        -6.6620552011        4.0802870071        1.0459731575
 H        -8.9590414881        0.9841914624       -0.2802938097
 H        -8.1650502183        0.1664728475        1.1857974859
 H        -7.2378634613        0.4681795314       -0.3043029712
 H       -13.8375907738        5.2704195897        3.0353612579
 H       -12.7010399112        6.4767122456        2.9271633190
 H       -13.8746544622        6.5189523998        4.3140333559
 H       -10.4763756812        5.9545690751        5.8333646337
 H       -12.1815615950        6.0030247191        6.5169499231
 H       -11.6276604785        7.0054929576        5.1399291238
 H       -16.8617053068        1.0882224601        2.6795564356
 H       -16.9133693949        0.8310017547        0.9573791514
 H       -17.1861709707        2.4773594382        1.5073200525
 H       -13.2511478173        0.4340740192        2.0054041165
 H       -14.5390258769       -0.3496838497        0.9162371714
 H       -14.8183838358       -0.1475744321        2.6852290843
 H       -16.4938081082        6.4377881934        0.8112237733
 H       -16.8942089305        6.0888464131       -0.9361498861
 H       -16.7994086335        7.6719491409       -0.3268220969
 H       -15.0448300489        8.6999289617       -2.1387927195
 H       -15.4710221332        7.0474969580       -2.7556765146
 H       -13.7354351305        7.5097562607       -2.4484751228
 Na      -11.3356154728        3.8092232326        0.5465383281
