117

 C       -15.2032650734       -2.7376602982       -3.5391674680
 C       -14.0883628850       -3.4475844340       -2.6937088720
 O       -14.3333764921       -4.3300182643       -1.9091504502
 C       -12.6049435524       -2.8641065841       -2.9038082066
 C       -12.2608766156       -1.6113686987       -1.9761896677
 O       -12.1067621960       -0.4937140690       -2.4148885124
 C       -12.2044173416       -1.8930473864       -0.5109632650
 C       -11.6536069359       -0.7189270618        0.3988825620
 C       -10.6405100331       -1.2456334425        1.5456950099
 O       -10.9746095821       -2.2128069918        2.1818099030
 C        -9.1178175564       -0.7295571224        1.6601301489
 C        -9.0546730626        0.0596928114        3.1248998355
 O        -9.9201257741       -0.0604347737        3.9617406907
 C        -7.7844273700        0.9549294089        3.3702381435
 C        -8.0410944716        2.2379595784        4.1940931727
 C        -8.9725112015        3.2220493411        3.3545599898
 O        -8.6103050630        3.5049207935        2.2533004579
 C       -10.3919658285        3.7575770569        3.8775298455
 C       -11.2476579787        4.0322326838        2.6663029069
 O       -11.2971979907        5.1995634965        2.1506559661
 C       -11.9982429277        2.9058835527        1.9505249435
 C       -12.3970925289        3.2037605898        0.5554104968
 C       -11.2671514201        3.8174779932       -0.4114859147
 O       -10.1010654103        3.5295688647       -0.2341426314
 C       -11.6295220285        4.6589067758       -1.5935345289
 C       -10.2813118690        5.4166188909       -2.2034755627
 O        -9.2556086865        5.6179255452       -1.5859931586
 C       -10.5909793790        6.0592566716       -3.6232570514
 C        -9.6799971629        7.1901852289       -4.0479483734
 C        -9.6953076531        8.5155897762       -3.3356832482
 O       -10.6437350269        8.7976989695       -2.6387488258
 C        -8.4631804597        9.4009755167       -3.1637938568
 C        -7.7455841371        9.2106142051       -1.8462234919
 O        -6.8177116312        8.4240597381       -1.7237864181
 C        -8.3643975407        9.7704035884       -0.5951021573
 C        -7.5981164380        9.6086569952        0.7552632736
 C        -7.3941531358        8.1574155959        1.2762247184
 O        -8.3921506580        7.5174175493        1.3755455639
 C        -5.9246963602        7.5650536373        1.6119204508
 C        -5.7147653511        6.5255614022        0.5639195755
 O        -6.6492527509        5.7745205478        0.3477650551
 C        -4.3915878651        6.3211534194       -0.2703809165
 C        -4.8317508535        8.7404851348        1.5336301426
 C        -5.9203718530        6.9117876568        2.9890804516
 C        -7.3310092780        9.2451012622       -4.2857145645
 C        -8.9882998784       10.8383472788       -3.1050837045
 C       -12.0028787353        3.6324377472       -2.6920250007
 C       -12.6702884643        5.8038560294       -1.3619369920
 C       -11.0750793234        2.8579578018        4.8267889387
 C        -9.9966726549        5.0303295991        4.5262338199
 C        -8.2116337024       -2.0345932769        1.6885671052
 C        -8.5443081662        0.1894395478        0.5858906135
 C       -11.6384413394       -4.1345495530       -2.5869639886
 C       -12.2605103881       -2.4228822026       -4.3398444568
 H       -15.1811960722       -3.2406782922       -4.4830089862
 H       -14.8668438043       -1.6675087436       -3.8189615537
 H       -16.0724839412       -2.8047185163       -2.9401580010
 H       -11.5344663788       -2.8017871644       -0.2995686099
 H       -13.1965768120       -2.0246966734       -0.1758218043
 H       -12.5797108096       -0.1997405927        0.8706128068
 H       -11.1420273809        0.1363874499       -0.1134838168
 H        -7.4326742735        1.3205204258        2.4168722953
 H        -6.9906190126        0.3442567201        3.8067530812
 H        -7.1142251192        2.7323762397        4.5211538611
 H        -8.5670056980        1.8959279630        5.1356330291
 H       -12.9201268423        2.7221743404        2.4805221864
 H       -11.2300894798        2.0441599997        1.9598023860
 H       -13.3243867509        3.9228578732        0.5283813347
 H       -12.7244432096        2.2571832404        0.1207586346
 H       -11.6349583926        6.4360306123       -3.6488076664
 H       -10.6431088284        5.2607520444       -4.3901659230
 H        -9.7036357318        7.4036928793       -5.1800308009
 H        -8.6570237667        6.7591590860       -3.8315098989
 H        -9.3302551720        9.3026406244       -0.4219040142
 H        -8.5873209860       10.8377972592       -0.6019616442
 H        -8.2681547472       10.2195014664        1.4185120522
 H        -6.6230452838       10.1754387683        0.6807263924
 H        -3.6612679087        7.0782444936        0.0099954844
 H        -4.5977505381        6.3712027027       -1.3246260638
 H        -3.9400907134        5.4192249347        0.0978488247
 H        -4.9198068648        9.4962025662        2.3164831292
 H        -4.8509497881        9.2357098220        0.6206137813
 H        -3.7955054429        8.2484179674        1.5736914622
 H        -6.7796202011        6.3115572288        3.1476492331
 H        -5.8753168102        7.6085827330        3.7970129626
 H        -4.9751346795        6.2261053855        3.0748199139
 H        -7.8787350513        9.4963213206       -5.2274349286
 H        -6.9022752124        8.2755520242       -4.3789169034
 H        -6.5516287118       10.0025549507       -3.9668778659
 H        -9.0128446942       11.2360948784       -4.0555118570
 H        -8.2878452870       11.4578688247       -2.5978650201
 H        -9.9202879667       10.9280367046       -2.6614640951
 H       -13.0489702054        3.2380205951       -2.6490028721
 H       -11.2470861678        2.8023887519       -2.6195087335
 H       -12.0028805137        4.0490589305       -3.7338783281
 H       -12.2105300986        6.5625582145       -0.6713213627
 H       -13.5627997305        5.3166331133       -0.9652576364
 H       -12.9403610241        6.2883073789       -2.2688674632
 H       -11.4754947431        1.9520463634        4.3612271466
 H       -11.9268481964        3.4025840470        5.3112594855
 H       -10.4039214637        2.4664842338        5.5261541147
 H        -9.7866557668        4.8630879631        5.6174907678
 H       -10.8143546367        5.7527232690        4.5040680190
 H        -9.1769809081        5.6579556143        4.2723774652
 H        -7.7254763680       -2.2305237953        0.7313889273
 H        -8.8162172425       -2.8736372789        2.1245587708
 H        -7.4428004027       -1.8706572572        2.4413871668
 H        -9.2718261165        1.0441547377        0.5182658259
 H        -8.5953961136       -0.2674501156       -0.3948919432
 H        -7.5245094263        0.4983485042        0.7925219073
 H       -11.6462186825       -4.6267514032       -1.6049359155
 H       -10.5760297911       -3.7468415984       -2.7291453265
 H       -11.8509884029       -4.9030781485       -3.3579840764
 H       -13.1231722886       -2.1117057862       -4.8833472946
 H       -11.8134653694       -3.3427162011       -4.6492007625
 H       -11.6044863535       -1.5480382281       -4.3459137326
 Na       -8.7492541360        5.2503325116        0.6963567739
