117

 C       -12.8560174021        9.0186127077        0.3546943935
 C       -14.1993200648        8.1817465503        0.3443532393
 O       -14.9818384559        8.3052554835        1.2859729403
 C       -14.7284083880        7.1862264543       -0.8014619003
 C       -13.8735593672        5.9366841712       -0.9457151611
 O       -12.7437084307        6.0117720952       -0.4123946234
 C       -14.4005508295        4.8420004326       -1.7806682056
 C       -15.1553100321        3.6534786879       -1.0893969670
 C       -14.3313106347        3.2296206159        0.1528388962
 O       -13.1595756629        2.8831013345        0.1711218394
 C       -15.1534923284        2.9220708950        1.5731990043
 C       -14.3029664385        3.3571163183        2.7575318153
 O       -13.1146071636        3.2814478224        2.7518047516
 C       -14.9679877193        3.9951453822        4.0202808488
 C       -14.0459739310        3.8040858621        5.2610607290
 C       -12.7592029574        4.5798806596        5.5177688184
 O       -12.0121476144        4.1427728702        6.3400624111
 C       -12.1500617985        5.8655232234        4.6472345811
 C       -11.2745082153        5.2478693482        3.5274727608
 O       -11.4236981780        5.6251590938        2.3039444720
 C       -10.0113917792        4.3492305719        3.9722560317
 C        -8.9976508329        4.2196911410        2.6928669241
 C        -9.0312784675        2.8746028067        1.9268062949
 O       -10.1213645163        2.4493183674        1.5680335168
 C        -7.8770030412        2.3335724816        1.0541841605
 C        -8.0717416079        2.8192395942       -0.4845624042
 O        -9.1179694662        3.3626002719       -0.7620572618
 C        -6.9641488809        2.4876199505       -1.4866257001
 C        -7.0297794901        3.6205075933       -2.6488280747
 C        -7.7507980908        3.1053269032       -3.9798618301
 O        -8.7984596426        2.4861938735       -3.9194351966
 C        -7.0644376801        3.3463950993       -5.3463940567
 C        -5.7845789060        2.3876838167       -5.0568153658
 O        -4.6752125093        2.8681916436       -4.6719810714
 C        -5.9953467252        0.8809684738       -5.0426011520
 C        -4.6414199987        0.1012734027       -4.9755954374
 C        -4.4765079721       -0.4112153023       -3.5166648403
 O        -5.4118423178       -0.5685473781       -2.7857424806
 C        -3.0035215243       -0.7222275279       -3.0576010311
 C        -2.9844193941       -1.7462007224       -1.9045884538
 O        -2.2974882622       -1.5671991275       -0.8948682939
 C        -3.7763843896       -3.0179522468       -2.0916575981
 C        -2.0923026341       -1.1393778899       -4.2536249580
 C        -2.1502457671        0.5871998651       -2.4173821130
 C        -8.0015091761        2.9121094978       -6.4476506015
 C        -6.4963041873        4.7279336680       -5.5269824892
 C        -6.5072009706        2.7664600293        1.7387032461
 C        -7.6884093939        0.7086423789        0.9248918063
 C       -13.3101065061        6.7588628412        4.0125464142
 C       -11.3115945941        6.6771693940        5.6111406973
 C       -16.5369778192        3.6033535119        1.7120714620
 C       -15.5575212380        1.3842813498        1.5877720763
 C       -16.1410469475        6.8254769366       -0.3561759637
 C       -14.9019761977        7.9016083055       -2.1769168926
 H       -12.2196782878        9.0404782188       -0.5250068096
 H       -12.2629859467        8.7025088847        1.1703264547
 H       -13.2008138239       10.0369635214        0.5743801878
 H       -13.5898421545        4.4301119015       -2.4824736939
 H       -15.0686144657        5.2244704186       -2.5417416807
 H       -15.0425821669        2.8028906207       -1.7928115779
 H       -16.1694890439        3.7518921315       -0.9603772368
 H       -15.9139980754        3.4047872246        4.2299640576
 H       -15.2614036827        5.0527466407        3.6614305091
 H       -13.8895304252        2.6875081088        5.1696278052
 H       -14.6429892224        4.0701313164        6.1339731530
 H       -10.4622624787        3.4837554645        4.2460798493
 H        -9.5485113355        4.8518669769        4.8088372084
 H        -8.0593886504        4.4558463749        3.1512926048
 H        -9.2178205266        5.0087444848        2.0837289986
 H        -7.0582722003        1.4907852506       -1.9744893062
 H        -6.0502320331        2.3082216389       -0.9427610443
 H        -6.0308353783        3.8869714958       -2.9636193266
 H        -7.5407461485        4.6535985503       -2.4295362137
 H        -6.6914684446        0.6214585261       -5.8254828269
 H        -6.6685024791        0.5577920714       -4.2705276465
 H        -3.8657840741        0.7755121604       -5.2659148059
 H        -4.7922465816       -0.8633440790       -5.3876876137
 H        -4.3242911686       -3.0772997465       -1.1891770102
 H        -3.0145837717       -3.7658817837       -2.3731038522
 H        -4.5064064384       -2.8901707363       -2.8099071206
 H        -1.2777376903       -0.3797001944       -4.4835177314
 H        -2.7015862648       -1.1718569071       -5.1246969509
 H        -1.6137750020       -2.0141921461       -4.0808495172
 H        -2.5240952110        1.1378588051       -1.6434304833
 H        -2.0803485855        1.2037935948       -3.2820627221
 H        -1.2130689471        0.1016648225       -2.0911606139
 H        -8.4657564829        1.9622267031       -6.1568361951
 H        -7.5625983895        2.7667483461       -7.3558154893
 H        -8.9100062813        3.4828590785       -6.6136982391
 H        -6.1393100944        4.8220068550       -6.5807186221
 H        -5.6747968294        4.9446515713       -4.9365787016
 H        -7.2348345892        5.6001351717       -5.4152582530
 H        -6.5902635480        3.6919907352        2.2398941448
 H        -5.6224566335        2.8944190679        1.0762100122
 H        -6.2931926435        2.0835979010        2.6289481268
 H        -8.5630458371        0.2723680792        0.3312967026
 H        -7.5085552788        0.2759505340        1.8095838322
 H        -6.9983871931        0.5883630797        0.2021501046
 H       -13.8453063740        6.2024850893        3.2147931752
 H       -12.9100016435        7.6022004627        3.3671655037
 H       -14.0340570656        7.1211894670        4.7712299079
 H       -10.3646249894        6.2384619533        5.6588632537
 H       -11.7325317834        6.7758324684        6.6752244980
 H       -11.2162494190        7.6695873350        5.2590179585
 H       -16.9800705852        3.3639196000        2.6115606749
 H       -17.1148800612        3.3109706003        0.8441507588
 H       -16.5891062751        4.7149412686        1.7302231288
 H       -14.7160249954        0.6790684484        1.4789409410
 H       -16.1692385897        1.1630774547        0.6745659882
 H       -16.0766633654        1.1520189665        2.5472589876
 H       -16.2458517715        6.2860344840        0.6038504760
 H       -16.4430593210        6.0474555407       -1.1044087340
 H       -16.9099176120        7.5422382246       -0.3051400332
 H       -15.7275049060        8.6281976743       -2.1413136951
 H       -15.1503881614        7.2685242533       -2.9495425271
 H       -13.9768130788        8.4050240357       -2.5122543008
 Na      -11.0268884542        4.0529053772        0.4355404108
