117

 C       -13.1740493268        9.2281068071        0.1306462730
 C       -14.2969579930        8.2730801946        0.4275410799
 O       -14.9114848834        8.2136994634        1.5023988150
 C       -14.6329821576        7.2414293037       -0.8857108632
 C       -13.7505302825        5.9469766993       -0.9817721128
 O       -12.5735497322        5.8517437494       -0.6085543114
 C       -14.3341149776        4.7192575022       -1.8878220791
 C       -15.3307995686        4.0028114094       -0.9932612225
 C       -14.5570237029        3.3095137127        0.1770604837
 O       -13.4012232658        2.9565801654       -0.0151364069
 C       -15.1385347360        3.0864719079        1.5306431478
 C       -14.2013906469        3.6252517840        2.6358719825
 O       -12.9800636943        3.4580444430        2.6003101572
 C       -14.8956691984        4.1102971041        3.9459742120
 C       -14.1286881347        4.1138619827        5.2896164234
 C       -12.5517201397        4.6093413994        5.3571725893
 O       -11.8456246006        4.0903126031        6.1961011925
 C       -12.0234374419        5.8585866590        4.4926977734
 C       -11.2708784532        5.3899190244        3.3328061661
 O       -11.4296657262        5.6616179044        2.1915246843
 C       -10.1091129456        4.3328371860        3.7236560842
 C        -8.8977229161        4.0773250421        2.8665867100
 C        -9.1072104071        2.8933455161        1.8631536283
 O       -10.0835197965        2.1641730664        1.9309301605
 C        -7.8455002486        2.4345391650        1.0088867182
 C        -8.1077011668        2.9891367489       -0.3545256738
 O        -9.0591371535        3.7504535578       -0.6250969644
 C        -7.0065383254        2.7414788210       -1.4242289241
 C        -7.1034274271        3.5499731001       -2.5924037696
 C        -7.8372600519        2.8576140563       -3.7952576910
 O        -8.8470385307        2.1876412513       -3.7155423443
 C        -7.1420395652        2.9650093068       -5.1901565819
 C        -5.7868234555        2.1947772646       -5.0230242529
 O        -4.8284411051        2.7410690176       -4.5837964668
 C        -5.8065187907        0.6809293556       -5.3854094649
 C        -4.4608064727        0.0120150578       -5.0190926326
 C        -4.3072776056       -0.4555051204       -3.5040115352
 O        -5.1871667221       -0.3238904864       -2.6528731557
 C        -2.9421110585       -0.9128029456       -2.9936791470
 C        -2.9677312743       -1.8688007716       -1.7587402787
 O        -2.4507086380       -1.5390117029       -0.7663906377
 C        -3.5917130698       -3.2417033118       -1.8926847407
 C        -2.1186508331       -1.7506947575       -4.1323217408
 C        -2.4675172102        0.5593202509       -2.6546657879
 C        -7.9678250373        2.4999117995       -6.3894849179
 C        -6.8366774114        4.5148448247       -5.3997398426
 C        -6.5452737669        2.9278293555        1.4881883426
 C        -7.9852634091        0.9199393000        1.1625798524
 C       -13.2733937891        6.7551543349        4.0334162408
 C       -11.2413490322        6.6903582668        5.5853098270
 C       -16.6214241883        3.6921349457        1.5913501164
 C       -15.1695245770        1.5022680690        1.9980019701
 C       -16.1514648656        6.9826382527       -0.7621599917
 C       -14.3893292711        8.0770050327       -2.1504544861
 H       -12.7007153037        8.9156932452       -0.8115740611
 H       -12.2982594046        9.0831038350        0.8794808647
 H       -13.4048019522       10.2990897864        0.0500998040
 H       -13.4984925153        4.1045200725       -2.0875387830
 H       -14.7144534042        4.7675307249       -2.9154625452
 H       -16.0536027987        3.4331208747       -1.5606761735
 H       -16.0228628881        4.8180505716       -0.5103577973
 H       -15.7852352026        3.5618239279        4.0689949597
 H       -15.1975515240        5.0809441663        3.6206152796
 H       -14.2039519497        3.1258285242        5.6288786507
 H       -14.6793687904        4.8217129853        5.9131079199
 H       -10.6188067818        3.3164229812        3.6086897593
 H        -9.9080645300        4.6144880024        4.8130335923
 H        -8.0266765886        4.0293634781        3.5425372303
 H        -8.8427204695        5.0336599398        2.1565713871
 H        -6.9471020384        1.6929423681       -1.7369375952
 H        -5.9643172243        2.8188154784       -1.0037825486
 H        -6.1891115346        4.0711017568       -2.8671719770
 H        -7.8384513011        4.2652096150       -2.4615165342
 H        -6.0373903301        0.5204490560       -6.4548844091
 H        -6.7514154850        0.2601296009       -5.0723627173
 H        -3.8951736983        0.9812587799       -4.9709052524
 H        -4.2795836355       -0.9232137379       -5.6464221961
 H        -4.6201247747       -3.1624892265       -1.3954633311
 H        -2.8685954372       -3.9125882158       -1.5623210779
 H        -3.8542522074       -3.3055633411       -2.9628753843
 H        -2.0634354201       -1.0535875421       -4.9848020253
 H        -2.5379497466       -2.7077217677       -4.5826756444
 H        -1.0880024867       -1.7965039419       -3.7862379389
 H        -3.3232486443        1.0439583746       -2.0015027859
 H        -2.6711534619        1.2198111808       -3.5687704842
 H        -1.5210156393        0.5553939867       -2.1700052917
 H        -8.3967644524        1.4659588036       -6.4748038149
 H        -7.2147551201        2.5157483136       -7.3259646005
 H        -8.8521531558        3.0722764940       -6.6323210431
 H        -6.8642979902        4.7225344160       -6.4481288844
 H        -5.7607341841        4.6544956449       -5.0038132380
 H        -7.4488016008        5.1670835255       -4.8533188040
 H        -6.3762185920        3.8266058511        2.1570878899
 H        -5.9619238203        3.2928979694        0.6222997063
 H        -5.9337376609        2.1360114765        1.8766881607
 H        -9.0148296624        0.5537789276        1.1084228611
 H        -7.4782936668        0.7827812522        2.2311635960
 H        -7.4982776076        0.4377494664        0.2834899704
 H       -13.5257474635        6.6673689185        3.0108682649
 H       -12.9369716022        7.7277664425        4.1020937079
 H       -14.1238651424        6.5861229141        4.6085259685
 H       -10.3369001146        6.0928837494        5.9446460758
 H       -11.8827133577        6.8860945717        6.4119734345
 H       -10.7422092102        7.7002832721        5.1911958184
 H       -17.0633188024        3.5263513435        2.6135552528
 H       -17.3110664257        3.3295433080        0.8097592202
 H       -16.6715420433        4.7489401222        1.4665243597
 H       -14.1357060231        1.0739191935        1.8015757160
 H       -15.6942489349        0.9026369788        1.3279897932
 H       -15.4155096122        1.4158677006        2.9981759859
 H       -16.4652565434        6.4491330892        0.1229950226
 H       -16.6126673776        6.4840466182       -1.5625714387
 H       -16.6931349135        7.9451231359       -0.5732964837
 H       -14.9890784424        8.9199715438       -2.2780557808
 H       -14.8788457231        7.3913141034       -2.9132302084
 H       -13.3270380379        8.3898223056       -2.4315723131
 Na      -11.3658479036        4.0567947860        0.4267421620
