117

 C       -13.2041160153        9.4703325293        0.3314036846
 C       -13.9948176889        8.0859996750        0.0908046133
 O       -14.3329333189        7.5088018060        1.1751357941
 C       -14.3885467139        7.5457378950       -1.3169259093
 C       -13.8806692075        6.0658531578       -1.1879617646
 O       -12.9434611707        5.9659103767       -0.4047542701
 C       -14.5419321412        4.8280406845       -1.8215149805
 C       -15.2656806118        4.2156813586       -0.7368246311
 C       -14.4568000351        3.2250529026        0.2543585357
 O       -13.3862873318        2.8082397104       -0.1615187927
 C       -15.1991280148        2.8962816243        1.6900411059
 C       -14.3230146252        3.7806885559        2.7649681783
 O       -13.1633412003        4.0923774199        2.6048972837
 C       -15.1570691792        4.5445929255        3.9082699270
 C       -14.3156256123        4.7795110333        5.2155289678
 C       -12.6757035877        4.9318463577        5.1743164734
 O       -12.0390461890        4.2372281283        5.9214575334
 C       -11.8936153672        6.2269881768        4.5081197261
 C       -10.9834916929        5.5724710075        3.4618777425
 O       -11.0169877784        5.9204781622        2.3316580974
 C        -9.9785498026        4.5458764937        3.9102682313
 C        -8.9099396263        4.1449130040        2.8996316072
 C        -9.0494416688        2.8375350217        2.1343282166
 O       -10.0825883188        2.2046003064        1.8926534479
 C        -7.9008672560        2.5213824138        1.2411705411
 C        -8.2454701678        3.2109285036       -0.1646774644
 O        -9.2457308058        3.9447586366       -0.3247278742
 C        -7.4463511347        2.8373405172       -1.4156166597
 C        -7.7046050237        3.4717949446       -2.7952654626
 C        -7.9891816041        2.4639976453       -3.8594091383
 O        -8.7788552465        1.5074321456       -3.6362799686
 C        -7.3601033156        2.5433532858       -5.2702759144
 C        -5.8476951893        1.8001628927       -5.0547788826
 O        -4.9597368093        2.4014360560       -4.4363129411
 C        -5.7315148026        0.2780823032       -5.4705299845
 C        -4.2589403034       -0.2429905444       -5.1440291218
 C        -4.1583831245       -0.4997654161       -3.6154876373
 O        -5.1116059091       -0.4278291511       -2.8746872887
 C        -2.7852142237       -1.1156741788       -2.9590566417
 C        -3.1443376328       -1.7113390034       -1.6118972320
 O        -2.9107706428       -1.1671933859       -0.5613926681
 C        -3.8181697593       -3.1826675605       -1.6520401543
 C        -2.2005746000       -2.0820653166       -3.9746391895
 C        -1.9154468664        0.1442991294       -2.6333947599
 C        -8.1936419459        1.6718742764       -6.1793922922
 C        -6.9814172622        3.9270120228       -5.8518545958
 C        -6.5620184470        3.0019943144        1.8858441748
 C        -7.7692222898        0.9225279016        0.9656593172
 C       -12.9666838983        7.1287338974        3.9431706669
 C       -11.0483666467        6.8272924847        5.5717431106
 C       -16.6574846720        3.2715682498        1.6131052917
 C       -14.9615699417        1.3781963290        1.9614801655
 C       -15.8891987792        7.7713870193       -1.6414037337
 C       -13.7337483276        8.4038727959       -2.4039438449
 H       -12.2099102206        9.2463116327        0.7719356452
 H       -13.6155853518       10.0682082809        1.1862657848
 H       -13.0169356166       10.0312468317       -0.5446789143
 H       -13.7622606655        4.2317765241       -2.3301270272
 H       -15.1486360448        5.2221700680       -2.6416627300
 H       -15.9085259311        3.4298485728       -1.1301416299
 H       -16.0166593559        4.9560865212       -0.2944180653
 H       -15.9543040438        3.9531835119        4.1610884833
 H       -15.6375567039        5.4944613699        3.6079916306
 H       -14.3809430587        3.8971215226        5.8136230441
 H       -14.8495787811        5.5433623062        5.7609017315
 H       -10.4849979825        3.6430187684        4.1376966253
 H        -9.4781842221        5.1008516306        4.7903998850
 H        -7.9302691205        4.2394004360        3.3593902554
 H        -8.9575032485        4.8726122498        1.9940936241
 H        -7.5136525032        1.7473745506       -1.3353893663
 H        -6.3572371044        3.1542004041       -1.3661740495
 H        -7.0339633087        4.2634193278       -3.0631422027
 H        -8.6912459518        3.8593292620       -2.6497309807
 H        -5.9576914225        0.0642506299       -6.4976676345
 H        -6.4419497682       -0.3154686807       -4.9738387539
 H        -3.5315066279        0.5970121004       -5.1972681427
 H        -4.0545479041       -1.2542709599       -5.6671535441
 H        -4.9285645171       -3.1039079354       -1.6654051301
 H        -3.5258689095       -3.7050541138       -0.7874039550
 H        -3.5406905205       -3.5190254925       -2.5699218376
 H        -2.9761162749       -2.9235537023       -4.2578680014
 H        -1.2413933885       -2.6288385174       -3.7319682641
 H        -2.0929976184       -1.6029015110       -4.8316601808
 H        -2.5364880418        0.8269872853       -2.0025249844
 H        -1.5570733783        0.6844848165       -3.6026857508
 H        -1.0032098918       -0.1945890802       -2.1737920049
 H        -8.2445263474        0.5477085834       -5.9477248931
 H        -7.7835421318        1.4940364312       -7.2132671336
 H        -9.1669288454        2.0664593053       -6.3583799901
 H        -6.3522899500        3.8302599916       -6.6649740504
 H        -6.5378243377        4.4644250313       -5.0389543715
 H        -7.8699096057        4.4184126913       -6.1854131296
 H        -6.2963823139        4.0352131476        1.5736836200
 H        -5.6861226077        2.3254955403        1.6387533612
 H        -6.4811311109        2.8504222204        2.9419735234
 H        -8.9299161883        0.5710020630        0.6399132373
 H        -7.7408363219        0.3395969836        1.9596600292
 H        -6.9562641477        0.5407700575        0.3994375031
 H       -13.8767022250        6.5918342197        3.6493158695
 H       -12.5669463530        7.7101729123        3.1053108920
 H       -13.3018523518        7.8063509883        4.7211244745
 H       -10.5538927921        6.1748251776        6.2557016946
 H       -11.7026598865        7.5024628900        6.1879259580
 H       -10.0959657679        7.3042837616        5.1876408020
 H       -17.1012325656        2.7203112595        2.4285300046
 H       -17.2474558725        2.8540416991        0.8142390810
 H       -16.8655072072        4.3185238625        1.6255069560
 H       -13.8642354367        1.0108071439        1.8098124078
 H       -15.4609127223        0.8250976409        1.1650115992
 H       -15.3324567112        1.0175997193        2.8582937530
 H       -16.5678059235        7.2534335877       -0.9327796848
 H       -16.2768535464        7.4855894062       -2.5836115617
 H       -16.1157981399        8.8695113579       -1.5235940399
 H       -14.1223614587        9.3594022482       -2.4081998593
 H       -13.8906706926        8.0035103581       -3.3902471833
 H       -12.6090359208        8.5920537606       -2.2470912965
 Na      -11.5026479652        4.1225516934        0.7722486959
