117

 C       -11.2539492501       -6.1367229636        2.9977911570
 C       -10.3374337954       -5.4579592820        1.9446288311
 O        -9.9203212750       -6.1293848737        1.0661632286
 C        -9.9743204080       -3.8581445735        1.9235612636
 C       -10.9417789029       -3.1348538915        0.8762805321
 O       -10.4714102321       -2.2357163104        0.1853846705
 C       -12.4045801683       -3.4367690201        0.9541701965
 C       -13.1483060521       -3.0730431353       -0.3738313723
 C       -12.6260223603       -1.9401211226       -1.2560404718
 O       -12.0083313883       -2.1010463175       -2.2731648559
 C       -13.0492599303       -0.3818988602       -0.9439032541
 C       -11.8232245349        0.6530211969       -0.7798296086
 O       -11.9704328192        1.4658699106        0.1360369457
 C       -10.5373752482        0.4099429798       -1.6301340079
 C        -9.2850302114        0.8634388997       -0.8624083119
 C        -8.9708394054        2.3975574721       -1.0870041451
 O        -8.9493905906        3.2132090462       -0.1850163132
 C        -8.4950254973        2.6772550648       -2.6346062568
 C        -9.6685272607        3.5800471000       -3.3534125326
 O       -10.7671457469        3.6111863733       -2.7935570103
 C        -9.3329354041        4.4085397515       -4.6344792943
 C       -10.1034263632        5.7491676011       -4.6434023193
 C        -9.7256363318        6.4986465174       -3.3098597007
 O        -8.7510615655        6.1843549049       -2.6620491096
 C       -10.6120151973        7.7770886311       -2.8951575063
 C       -10.0907865766        8.5131608842       -1.6298225280
 O        -9.6733592756        7.8808949696       -0.7067982716
 C       -10.1611134709       10.0033091770       -1.4762948286
 C        -9.6327719223       10.4746184700       -0.1369051738
 C       -10.5842073769       10.1142662105        1.1277098906
 O       -11.6187818477        9.4991637182        1.0609342226
 C        -9.9883054441       10.4842223446        2.5619491988
 C        -8.9185382485        9.4811450100        2.8894839907
 O        -7.8691468155        9.5827811108        2.3295711492
 C        -9.0452566452        8.1643849240        3.8022198444
 C        -7.8566134066        7.2015934268        3.7540366590
 C        -7.8808249336        6.1232637277        2.6298153117
 O        -8.8796601327        6.0937454596        1.9297046026
 C        -6.6957912312        5.1820959273        2.4378254201
 C        -6.0817374146        5.5833630737        1.0810958645
 O        -6.6096020670        5.4444499609       -0.0109168713
 C        -4.6560283888        6.0977600662        0.9750852819
 C        -5.6785539446        5.2995507346        3.5838830583
 C        -7.2064453947        3.7201097028        2.4097594187
 C        -9.3637608721       11.9166121826        2.6062391931
 C       -11.1789713072       10.3745788832        3.6164884571
 C       -10.5326877186        8.7749981988       -4.0937409714
 C       -11.9928491281        7.2823656824       -2.4722363635
 C        -7.2084329276        3.4785526703       -2.4890500681
 C        -8.1897881496        1.4019786394       -3.4871914771
 C       -13.6335900412        0.0001727089       -2.3052402672
 C       -14.0354154661       -0.2207482057        0.2473777891
 C       -10.2327656379       -3.4414152419        3.3976289171
 C        -8.5157863611       -3.6344218033        1.5326755434
 H       -10.5095743836       -6.3833878335        3.7638405973
 H       -11.6156494815       -7.0564669447        2.7107068045
 H       -12.0144660010       -5.5089517668        3.3167905183
 H       -12.8675886194       -2.9389874160        1.8249374081
 H       -12.4681915305       -4.4424688278        1.1348104108
 H       -14.2357795246       -2.9579200728       -0.3075679866
 H       -12.8662864594       -3.9067313041       -0.9841498502
 H       -10.6712753591        1.0346350393       -2.5671743963
 H       -10.2971990828       -0.5888697762       -1.9728134251
 H        -8.4976234022        0.1806878261       -1.1479487597
 H        -9.3931074826        0.6920683105        0.2022895314
 H        -9.6593383353        3.8315176322       -5.5031682358
 H        -8.2387087445        4.4441376608       -4.9758221948
 H       -11.2241896853        5.6456533327       -4.9285685737
 H        -9.7176322608        6.4504524908       -5.4471331115
 H       -11.2426372193       10.4103285555       -1.5263678149
 H        -9.6552387599       10.5338561679       -2.3306100690
 H        -9.4706251164       11.4862480011       -0.1524189229
 H        -8.6609765742        9.9803221409        0.1683809651
 H        -9.9829887680        7.7277742226        3.4509903441
 H        -9.1796603163        8.3818793430        4.8142884266
 H        -7.7154621141        6.7275050950        4.7664754454
 H        -6.9758275672        7.8654555787        3.6715123902
 H        -4.4583936026        7.2012226111        1.2169085701
 H        -4.2056324966        5.9309100506        0.0528848089
 H        -4.1555759676        5.4983259669        1.7268790282
 H        -6.1436659836        5.3024311656        4.6006924822
 H        -4.9550849761        6.1143792246        3.4958813956
 H        -5.0310670643        4.4104416032        3.5350442276
 H        -6.5471618808        3.2183033729        1.7698407526
 H        -8.2275291814        3.7077601835        1.9359285526
 H        -7.0543459084        3.2465717009        3.3269479415
 H        -8.9180880439       12.0925241432        3.5846463046
 H       -10.1246664685       12.6413896861        2.3732079416
 H        -8.6553795604       12.0924014227        1.7798293685
 H       -10.7687388739       11.0415704213        4.4110821215
 H       -11.2877372618        9.3659823557        3.9140284026
 H       -12.1762811184       10.7138499239        3.1623982312
 H       -10.9163107018        8.2829437036       -4.9521711984
 H        -9.5311554281        9.0550022476       -4.3601823018
 H       -11.0985975607        9.6833988997       -4.0862175536
 H       -12.5393076994        7.0185435224       -3.2908331920
 H       -12.5935511240        8.0916055768       -2.1054947579
 H       -11.8943193505        6.4990602808       -1.8408407550
 H        -6.7979296124        3.7174818416       -3.4124647290
 H        -6.4570400855        2.9106293691       -1.9138079804
 H        -7.2853213019        4.4096637139       -1.9244935590
 H        -9.1426058655        0.9453971983       -3.6773572374
 H        -7.6018447581        0.5935868468       -2.9559154528
 H        -7.6497387398        1.6136185022       -4.3533546363
 H       -14.4048419047       -0.7376678496       -2.5361434611
 H       -12.9630029335       -0.2420812783       -3.1303158786
 H       -13.9759749465        1.0466264994       -2.2638480191
 H       -14.8875648547       -0.7854066896        0.0011205515
 H       -14.2521924702        0.8389289459        0.4160959914
 H       -13.6099274749       -0.5705812014        1.1930618858
 H       -11.2438065930       -3.4461638077        3.7440345140
 H        -9.8187111412       -2.4184392680        3.5350162813
 H        -9.6041085167       -4.0549511066        4.0092677865
 H        -8.4289198093       -2.5837719709        1.5896383694
 H        -8.3140119999       -3.9070800505        0.5128035626
 H        -7.8692057133       -4.2003571116        2.0911938558
 Na       -8.7737841399        5.8352949012       -0.3123808134
