117

 C       -16.5880811226       -0.1735060249        2.0134246255
 C       -16.8224152657       -1.1629901079        3.1475204843
 O       -17.4791648469       -0.8350206985        4.1610671711
 C       -16.5022551142       -2.7138072727        3.0540456230
 C       -16.0141127026       -2.8950090914        1.5701633932
 O       -16.7913224056       -2.8826473667        0.6355326007
 C       -14.3930797733       -2.9787056381        1.1685252528
 C       -13.7663675394       -1.6109509472        1.0880821607
 C       -12.3264404873       -2.0786996040        0.5276605235
 O       -12.2930243604       -2.4600291827       -0.5705876387
 C       -10.8987780463       -1.9330257667        1.3442681683
 C       -10.6750878740       -0.3552241675        1.3629419779
 O       -11.3162596980        0.2904183264        2.1882357768
 C        -9.8949016108        0.4270513263        0.2362745586
 C        -9.8643049020        1.9340902075        0.2782823511
 C        -8.5671297052        2.5775389270        0.9115419935
 O        -7.9051008389        3.0831524285        0.0167990947
 C        -8.1670502379        2.8370095197        2.3704544599
 C        -7.6193130152        4.3112050046        2.5180956376
 O        -7.8389282217        5.1614129435        1.6353831803
 C        -6.8560386241        4.8136120404        3.7595131753
 C        -7.3909293172        6.2438150391        3.9943277284
 C        -6.8721325091        7.1916838606        2.9081283379
 O        -5.7245760072        7.1476187509        2.4937806930
 C        -7.7571832981        8.3544111666        2.4160628827
 C        -8.2620719559        7.8950241831        1.0381338684
 O        -7.4404242985        7.3154944092        0.2748823627
 C        -9.6684170183        8.3706641446        0.4769408254
 C        -9.8976366922        8.3391923775       -1.1034271978
 C        -9.7938804725        6.9789536600       -1.6810962827
 O        -9.6010101605        5.9906759367       -0.9660543685
 C       -10.0338779720        6.4891442733       -3.1555898005
 C        -9.0410236753        5.4022855027       -3.5131889978
 O        -9.0466655371        4.3091298093       -3.0401380749
 C        -7.8918755282        5.7520600686       -4.4771358246
 C        -6.7151273884        4.9109908880       -4.2358797164
 C        -5.5750838105        5.7564301147       -3.4281903673
 O        -5.6040101257        5.5224378424       -2.2633302150
 C        -4.5788648450        6.6777395772       -4.1376688891
 C        -5.1877482023        8.1761510575       -3.8206869378
 O        -6.3197574506        8.3265125361       -3.6049058589
 C        -4.2761850212        9.4096430311       -3.8855328721
 C        -3.0521359808        6.6880879520       -3.5003461800
 C        -4.3123845602        6.3828634877       -5.7474272706
 C       -11.3290288538        5.7734720216       -2.9593552095
 C       -10.1429188588        7.5517208324       -4.1979796874
 C        -8.9308426485        8.7762960140        3.4294996584
 C        -6.7333644124        9.5265593959        2.3052984447
 C        -9.2661122704        2.7278062372        3.4409352176
 C        -6.9757582022        1.7685382405        2.6495209358
 C       -10.7847491603       -2.4360632656        2.7842823450
 C        -9.6970953333       -2.4716752511        0.4736802561
 C       -15.3553901733       -3.1056926246        4.0462681397
 C       -17.7222109529       -3.7742845549        3.2486233436
 H       -16.6182265249       -0.6777234773        1.0436937139
 H       -15.5963431777        0.3632303972        1.9475619317
 H       -17.4612128955        0.5490896039        2.0659986859
 H       -14.4699351366       -3.3280674912        0.1568827337
 H       -13.8468307111       -3.4997787143        1.9643532852
 H       -13.7357662653       -1.0634237493        2.0384307270
 H       -14.1774356709       -1.1056184174        0.3178890446
 H       -10.3879035208        0.1403485023       -0.7533588242
 H        -8.9092117696        0.0152334338        0.1156085415
 H       -10.6356740250        2.2320316702        0.8609746472
 H        -9.9517778347        2.3540595268       -0.6827126376
 H        -5.7908814337        4.8818740028        3.5520588194
 H        -7.2012980930        4.1933122539        4.5713515231
 H        -6.9535680978        6.4266469370        4.9854704044
 H        -8.5027743504        6.2896864575        4.2368036636
 H       -10.1110479206        9.3031112483        0.7971081421
 H       -10.3301467109        7.5822030442        0.7318302191
 H        -9.3583155151        9.1521183237       -1.6105466825
 H       -10.8983277630        8.6604599676       -1.2766425333
 H        -7.6077698103        6.8589415297       -4.6516312898
 H        -8.2379444683        5.5415455879       -5.5536959836
 H        -6.3013841894        4.5254005331       -5.1873981073
 H        -6.9537233880        4.0809894844       -3.6586341135
 H        -4.9635365392       10.0755285613       -4.2654890473
 H        -3.4161225416        9.1871584013       -4.5079177645
 H        -3.9075997042        9.6329666975       -2.8483205600
 H        -2.2737943183        6.9313206224       -4.2336769787
 H        -2.8362152367        5.7367138652       -3.0785704266
 H        -2.9439705928        7.4187808425       -2.7315452364
 H        -3.5803325487        6.9760200908       -6.1723717544
 H        -5.1792176001        6.6448014963       -6.2106666986
 H        -4.0621280298        5.3218810704       -5.9616822434
 H       -11.7040340791        5.2313233414       -3.8497478337
 H       -12.2473330208        6.3071708653       -2.6289736898
 H       -11.1253170780        5.0082907466       -2.1538155165
 H       -11.1654930965        7.8520859142       -4.5289752164
 H        -9.5834621524        7.2832097333       -5.0964683510
 H        -9.7354187252        8.4726298890       -3.8961791617
 H        -9.5916100488        7.9123295284        3.5742382583
 H        -9.5624051846        9.6035894117        3.1946546858
 H        -8.5087837857        8.8758182772        4.3524377426
 H        -6.3642077741        9.4726464620        3.3211420775
 H        -7.2464787930       10.4784765344        2.1204630319
 H        -5.9129610414        9.3421825062        1.6586759981
 H        -9.4680992847        1.7675290564        3.9508709373
 H       -10.2079232791        3.1210487551        2.9678180332
 H        -8.9604635011        3.2292404878        4.3792160239
 H        -7.0905103926        1.2548370688        3.6321757051
 H        -5.9114989759        2.1382823290        2.7575641191
 H        -6.8978954179        0.9670273801        1.9451266422
 H        -9.8223523223       -2.1987795180        3.3548720829
 H       -10.7348921534       -3.5690011990        2.8121407153
 H       -11.6151969824       -2.1301286599        3.4571023987
 H        -9.6873467527       -2.4354479577       -0.6098731266
 H        -9.6307334307       -3.5582644817        0.5831285175
 H        -8.6830183818       -2.0629758315        0.7169531468
 H       -15.8381387908       -3.0958598921        5.1089421728
 H       -14.6693969372       -2.3166614168        3.9759064453
 H       -14.9178853206       -4.0426201128        3.7877554908
 H       -18.4253433025       -3.6247735328        2.4011551236
 H       -18.3524498078       -3.5391534111        4.1577798274
 H       -17.2051635818       -4.7535893051        3.4116009332
 Na       -7.1422449890        5.2082588016       -0.6599113624
