117

 C       -17.7036208868       -0.4322468178        1.9332045130
 C       -16.8596390449       -0.9029225745        3.1421513204
 O       -16.6242427691       -0.2089917101        4.0970850117
 C       -16.4332769802       -2.5249183954        3.1125420165
 C       -15.9137796640       -2.9599719627        1.6576808280
 O       -16.7645695253       -3.1997311193        0.8211873428
 C       -14.3837732628       -3.1607003266        1.4289720286
 C       -13.6369217868       -1.7615653675        1.0502657580
 C       -12.1486072007       -1.8567722904        0.5929982144
 O       -11.7635996124       -1.5721674096       -0.5551276123
 C       -11.0665510388       -1.5488136423        1.7268436440
 C       -10.8387195487       -0.0182149532        1.5565310920
 O       -11.4096870950        0.7949394979        2.2701787334
 C        -9.9650476580        0.4163229179        0.3975032772
 C        -9.5613839520        1.8468883401        0.3613698550
 C        -8.1595965049        2.2845303608        1.0828268815
 O        -7.2910304545        2.4549776772        0.2686193005
 C        -8.0113413400        2.8635790220        2.6003789649
 C        -7.9565389171        4.4910150482        2.5338767374
 O        -8.1819772357        5.2195777527        1.6281546543
 C        -7.8176264821        5.2563452856        3.9319901114
 C        -8.0573988090        6.7813152072        3.7617907114
 C        -7.1515035678        7.5152089871        2.7865404535
 O        -6.0017475465        7.1328923827        2.6618763728
 C        -7.6626034723        8.7727986521        2.0042556305
 C        -8.1339238295        8.1826940579        0.5499017520
 O        -7.3612084352        7.6205466210       -0.1958584677
 C        -9.6211557623        8.4143753853        0.3292945751
 C       -10.0087951517        8.1817168203       -1.1150996135
 C        -9.8889600081        6.6920627495       -1.5530703982
 O        -9.7946290813        5.7941574331       -0.7260479653
 C       -10.1674789680        6.3698874466       -3.0335234424
 C        -8.8572620519        5.4701036365       -3.4339032054
 O        -8.8095378575        4.3068728021       -2.9921868270
 C        -7.8516891721        5.8994158592       -4.5882677354
 C        -6.7970769725        4.8417624611       -4.6727680502
 C        -5.6356735960        5.2330259700       -3.7529717324
 O        -5.7317181404        5.0107048629       -2.5464651396
 C        -4.4479296510        6.0779326549       -4.3599458048
 C        -4.6490572795        7.6616568461       -3.8406050249
 O        -5.7940237460        8.1457122729       -3.5593801430
 C        -3.4481097130        8.7743027695       -3.9216948061
 C        -3.1206995475        5.4706106907       -3.7694085157
 C        -4.5472545041        6.1020337780       -5.9023616089
 C       -11.4546043775        5.5832227206       -3.0500303725
 C       -10.1938036695        7.5554979302       -4.0749022093
 C        -8.7215242380        9.5082612713        2.7298372953
 C        -6.3029066929        9.5827073899        1.8956780807
 C        -9.1782595108        2.5760988307        3.5125110777
 C        -6.6644406277        2.3292678175        2.9742307988
 C       -11.3985909193       -1.9241393684        3.2012737989
 C        -9.8466703973       -2.4252216193        1.2463165119
 C       -15.4068215164       -2.7181543032        4.1571995840
 C       -17.6475441371       -3.5259224478        3.5350904829
 H       -18.7997926956       -0.7496147185        2.0882952496
 H       -17.4961757419       -0.7580122728        0.8864377029
 H       -17.7749056509        0.6238776169        2.0535864932
 H       -14.3879120998       -3.6297903996        0.4528204625
 H       -14.0497744414       -3.5890825524        2.3000553069
 H       -13.6790312124       -1.2209916782        1.9257664264
 H       -14.1743813925       -1.3588378207        0.2077878911
 H       -10.4244069259        0.0577196736       -0.5175430988
 H        -9.0525007269       -0.2288351898        0.4382785751
 H       -10.2938340153        2.3073272472        0.8377562849
 H        -9.4444121386        2.2591411923       -0.5806756948
 H        -6.8217703295        5.1092398160        4.2664576816
 H        -8.4870453102        4.7863429313        4.6000411328
 H        -7.8452703360        7.3115620532        4.7678120767
 H        -9.1337931818        6.9972207737        3.5552876230
 H        -9.6877126692        9.4758814392        0.4973000733
 H       -10.2360710452        8.0172056705        1.0745266062
 H        -9.3067718753        8.8703290087       -1.5398335710
 H       -11.0226354043        8.5069657501       -1.3959827018
 H        -7.4530396803        6.9756826560       -4.6953737170
 H        -8.4439233475        5.7485069136       -5.5188740987
 H        -6.3409567377        4.7511253104       -5.5983222069
 H        -7.2232801519        3.8392110774       -4.3235055792
 H        -3.7347984246        9.4177404942       -4.7997283924
 H        -2.4370921917        8.4131930666       -4.0482473943
 H        -3.4486370701        9.2110630207       -2.9813736378
 H        -2.4056486885        6.2561032036       -3.7739896611
 H        -2.7324533089        4.6939814881       -4.4063510031
 H        -3.2038473430        5.2703062344       -2.6833365525
 H        -3.6563346741        6.6204876711       -6.1441814787
 H        -5.3187390577        6.6990801418       -6.3267685648
 H        -4.5271932033        5.1698445267       -6.3244187547
 H       -11.9818645226        5.8029500185       -4.0065475892
 H       -12.1541236225        5.8855151630       -2.2262005221
 H       -11.4862944639        4.4703155623       -2.9834607508
 H       -10.8182101739        8.3777565837       -3.7970043357
 H       -10.6828578730        7.2382678620       -4.9970827070
 H        -9.1826442567        8.0358499711       -4.2348270779
 H        -9.5178247125        8.8809562689        2.9317654648
 H        -9.0053784402       10.3793921901        2.2093797792
 H        -8.2366345402        9.8226805901        3.7176280829
 H        -5.8113896812        9.6293790332        2.8823133656
 H        -6.3711193198       10.6205847176        1.5650845701
 H        -5.7273935201        8.8739127211        1.2330243155
 H        -9.3609025164        1.4765534833        3.6140628764
 H       -10.1692580652        3.0568836534        3.2383864893
 H        -9.0748700441        2.9063800676        4.5831112877
 H        -6.0756202476        2.8487931274        3.7691588451
 H        -6.0559537639        2.2617234784        2.0745609795
 H        -6.6895825221        1.2711914516        3.3889052323
 H       -10.8992707768       -2.9131175380        3.4922775611
 H       -12.4998259526       -1.9132838825        3.3972991074
 H       -10.9265231142       -1.0735953768        3.8144206922
 H        -9.4939843774       -2.2406470112        0.2181698990
 H       -10.2506512545       -3.4780486628        1.1574980206
 H        -8.8895745733       -2.4158785561        1.7829078437
 H       -14.8145371584       -1.8793995213        4.2879051328
 H       -14.8202223408       -3.6302494548        3.8589758554
 H       -15.7921051836       -3.1707798972        5.0933250254
 H       -18.5265859668       -3.2617832628        2.8688695403
 H       -17.9107444289       -3.3612882273        4.6096950422
 H       -17.5181273433       -4.6174828265        3.3224001865
 Na       -7.5828889614        4.4556751670       -0.8231786820
