117

 C       -17.9426160053       -0.5933241981        2.1004499709
 C       -16.9721082428       -0.9827863659        3.1967353318
 O       -16.3615178934       -0.1662086350        3.8187655919
 C       -16.4874721152       -2.4969483666        3.2397865081
 C       -15.9728599278       -2.9487455192        1.7440787432
 O       -16.7351928609       -3.1864981238        0.8374871494
 C       -14.2538686113       -3.1077804634        1.2994444556
 C       -13.6883999789       -1.7331804501        0.9864428374
 C       -12.2332278818       -1.5877021619        0.7050157137
 O       -11.7708076928       -1.5816443272       -0.4914664719
 C       -11.1285280923       -1.5424894654        1.8459193681
 C       -10.8254553715       -0.0063907562        1.6003118478
 O       -11.4867571550        0.8219563167        2.1182709067
 C        -9.7426384047        0.3942924328        0.5036964700
 C        -9.6210446976        1.9041097252        0.5394000713
 C        -8.2309598249        2.4756694095        1.0297300824
 O        -7.1905392883        2.4918204441        0.3478078007
 C        -8.0200191403        2.9243087696        2.5566249254
 C        -7.9530812285        4.5511753060        2.5641995252
 O        -8.0346592596        5.0840170714        1.4769719455
 C        -7.8709469365        5.3495867861        3.9340446252
 C        -8.2656499742        6.7617641531        3.6339898396
 C        -7.1969478165        7.4371143477        2.8015117723
 O        -6.0468409103        6.9144560977        2.7992868668
 C        -7.4870287884        8.8092377454        1.9586403926
 C        -8.0487928653        8.3338500433        0.5911401810
 O        -7.4811116048        7.6179398453       -0.2022018054
 C        -9.6111576092        8.5425276233        0.3567416962
 C       -10.0889517311        8.2516713647       -1.1408428528
 C        -9.9728598751        6.7696418803       -1.5749201548
 O        -9.9971435061        5.8854122469       -0.7387017014
 C       -10.0396145882        6.3390803882       -3.1277112319
 C        -8.9060815921        5.3045358749       -3.4995070745
 O        -8.7141460368        4.1817777120       -2.9821057447
 C        -7.9191586219        5.8343475713       -4.5190228381
 C        -6.8207571107        4.7303470300       -4.7879813723
 C        -5.7428326539        5.2296873216       -3.8100734194
 O        -5.7593405773        5.0105593428       -2.6192411101
 C        -4.4519485444        6.1581098516       -4.3547901204
 C        -4.5744206232        7.6056903501       -3.8984087628
 O        -5.6601872730        8.0191596797       -3.5679810402
 C        -3.3960599548        8.5064668001       -3.9151491693
 C        -3.3314501063        5.2595867056       -3.7268546176
 C        -4.4091808406        6.0892153587       -5.8678209977
 C       -11.4093478133        5.5868817974       -3.0999993926
 C       -10.1987770344        7.4090063763       -4.1475805015
 C        -8.6052646826        9.7240995828        2.6362985945
 C        -6.1590657253        9.7132465061        1.6897255886
 C        -9.0636883600        2.4747743294        3.5565204786
 C        -6.5185210320        2.5117090593        3.0871194294
 C       -11.5604530419       -1.9725291502        3.2254251895
 C        -9.8015355389       -2.2711463813        1.3713495318
 C       -15.3623660211       -2.6270586091        4.3057675267
 C       -17.6753663861       -3.3687310450        3.5058829443
 H       -18.8971372427       -0.9335575665        2.1480367833
 H       -17.5635585643       -1.0718707015        1.1642893388
 H       -17.9670957519        0.4384355372        1.9731689301
 H       -14.1969014824       -3.6668439694        0.3950804227
 H       -13.8259047888       -3.4668322113        2.2504840452
 H       -13.9836104148       -1.2533635623        1.8705459036
 H       -14.1725124787       -1.3504520905        0.0301639052
 H       -10.1468887352        0.1308347986       -0.4455209937
 H        -8.7806239423       -0.1493815628        0.4947727850
 H       -10.5236551424        2.3448968984        1.1144474213
 H        -9.6318517859        2.2112465336       -0.5592886736
 H        -6.8584605672        5.3673559147        4.2096352736
 H        -8.4131265330        4.7788909060        4.6807347991
 H        -8.3644648037        7.2934833807        4.6551561336
 H        -9.2533229013        6.8829498663        3.1302258419
 H       -10.1590290962        9.2901477295        0.8038339058
 H        -9.9408831448        7.6575857821        0.9219824217
 H        -9.5999175254        9.0096921316       -1.7097437298
 H       -11.2049912556        8.3469279685       -1.2591743778
 H        -7.4579434989        6.6524389919       -4.0628139276
 H        -8.3426736018        6.2450488829       -5.4239870886
 H        -6.2505227239        4.7516565163       -5.7689986020
 H        -7.1835382318        3.6641705847       -4.4975347075
 H        -3.4162500300        9.1938530876       -4.7760387691
 H        -2.5454807492        7.8839068646       -4.0347732900
 H        -3.2871067334        8.8952079916       -2.9202151233
 H        -2.3733327927        5.7726123914       -3.6881844433
 H        -3.2025268301        4.4251937009       -4.3712106741
 H        -3.5523453734        5.0422218637       -2.7600970726
 H        -3.5421684949        6.4854865623       -6.2311212527
 H        -5.1826467717        6.5888934996       -6.2521982601
 H        -4.5160960147        5.0732741665       -6.2102028620
 H       -11.9151854807        5.4757664848       -4.0641803652
 H       -12.1749249047        5.9220894238       -2.2996198560
 H       -11.1744577161        4.4767532780       -2.7933950262
 H       -11.2398608973        7.7891689572       -4.0929696132
 H       -10.1728830832        7.0658650092       -5.1496899732
 H        -9.5461654842        8.2401940187       -3.9982084971
 H        -9.5235975693        9.1552371856        2.6667832395
 H        -8.6818921912       10.7202804496        2.0778172401
 H        -8.2679247300        9.9649202734        3.5885067255
 H        -5.5477090732        9.6686635795        2.5471500229
 H        -6.4062042164       10.7198057007        1.6422129898
 H        -5.6319394456        9.3439966638        0.8568778017
 H        -9.3879297775        1.4770280148        3.5123279375
 H        -9.9631883740        3.0474011793        3.4460610206
 H        -8.8328631997        2.7704962715        4.6166043168
 H        -5.9931774324        3.3247491671        3.5092336430
 H        -5.8418245187        2.0420083756        2.3376768726
 H        -6.5359038085        1.7731359556        3.9625825120
 H       -11.5767346570       -3.1025293159        3.4168205963
 H       -12.6224503559       -1.4598141969        3.3439162536
 H       -10.8901227324       -1.4626642958        3.9527842802
 H        -9.7034482164       -2.3705037292        0.2141571985
 H        -9.7758855266       -3.2720284616        1.7082364664
 H        -8.8225110151       -1.8850001691        1.6577359855
 H       -14.4776090652       -2.2320311059        3.8262149702
 H       -15.2446442446       -3.7293645351        4.5233486037
 H       -15.5028912830       -2.2339007657        5.3044092463
 H       -18.4663615465       -3.2580003666        2.7606315663
 H       -17.9898034724       -2.9261836200        4.4106408049
 H       -17.5812796500       -4.4344649094        3.6361589648
 Na       -7.6563101656        4.3637745954       -0.7921581382
