117

 C       -18.2443643833       -0.6744401246        2.5941013842
 C       -16.8147064893       -0.8502923579        2.9434404315
 O       -15.9589208675       -0.0909112699        2.7792295711
 C       -16.3489147406       -2.4423840700        3.2646770053
 C       -15.8580125560       -2.7976489362        1.8697743245
 O       -16.5437143357       -3.1787121636        0.9243116728
 C       -14.4091330068       -2.8488782990        1.5336902647
 C       -13.7946870450       -1.4926503453        1.1596557933
 C       -12.3925602175       -1.6561119411        0.7714352567
 O       -11.9788460290       -1.8591472498       -0.4104102075
 C       -11.3150871731       -1.3265309474        1.8666674612
 C       -10.9842220521        0.1658733145        1.7320127370
 O       -11.7591577481        0.9713742044        2.1614145302
 C        -9.5512217293        0.5486196621        1.1883763195
 C        -9.3605853744        1.9907981384        0.8440754535
 C        -7.9728099992        2.5500335374        1.2726233733
 O        -7.1787599739        2.6031761476        0.3562524894
 C        -7.7181310385        3.1193339863        2.6584732410
 C        -8.0045988564        4.5797129033        2.4993706210
 O        -7.7269333984        5.0779734016        1.4356289891
 C        -8.6315437257        5.4513392357        3.6155966022
 C        -8.6041016596        6.9530912677        3.1364339847
 C        -7.3153747280        7.5717188853        2.6280429506
 O        -6.1370440016        7.2197951954        2.9298096542
 C        -7.4025053609        8.8659121351        1.6790506395
 C        -8.1908373121        8.4454354546        0.4639025648
 O        -7.6225654093        7.6951988304       -0.3335618392
 C        -9.6862185803        8.7269462369        0.1837647181
 C        -9.9295262882        8.2108801584       -1.3105062622
 C        -9.9847973544        6.6202763824       -1.5800443293
 O        -9.8082361250        5.7877311001       -0.7197924955
 C       -10.2557998890        6.1797086107       -3.1547606195
 C        -9.1427460153        5.2924973069       -3.5255732741
 O        -8.8559919977        4.2954406969       -2.8063982794
 C        -8.3232241211        5.5274123655       -4.8384506049
 C        -6.9460252873        4.7088934436       -4.7591767803
 C        -5.7777734465        5.1324249261       -3.8127738485
 O        -6.0078156818        4.9585130694       -2.6253351430
 C        -4.3720670343        5.5636148226       -4.2475532635
 C        -4.3442647772        7.1913102833       -3.7134993785
 O        -5.4789202418        7.6567573574       -3.6264824179
 C        -3.0021797809        7.9896748759       -3.6568692248
 C        -3.1285715538        4.8489754296       -3.5814662400
 C        -4.1904254991        5.5849300496       -5.8098061698
 C       -11.4813714253        5.3027501922       -3.2813435568
 C       -10.6080315534        7.4837964329       -4.0194626382
 C        -8.0699828371        9.8892922088        2.6041033362
 C        -5.9086742015        9.2444342209        1.1916308101
 C        -8.6158539855        2.5283137094        3.7641982280
 C        -6.3199074632        2.8408445625        3.1120420221
 C       -11.8078983343       -1.3965551354        3.3481627984
 C       -10.1791174169       -2.3299995063        1.5475044323
 C       -15.3202938673       -2.5294368967        4.3773022613
 C       -17.4952957716       -3.4521559922        3.6904061372
 H       -18.8717977167       -0.6467521238        3.5220613249
 H       -18.6859128904       -1.5615632952        1.9336826953
 H       -18.4041891242        0.2067596599        1.9260035847
 H       -14.3819702290       -3.3276057462        0.5246489790
 H       -13.7233503339       -3.2798488588        2.2389854603
 H       -13.7310597792       -0.9668283372        2.0334485417
 H       -14.2880065595       -0.8566608503        0.3943432232
 H        -9.4264973015       -0.0334731511        0.2828204060
 H        -8.7574085982        0.1563963703        1.8859739980
 H       -10.1285664685        2.4601654564        1.2664856667
 H        -9.4607916158        2.0249075685       -0.1399322159
 H        -8.1176128592        5.2181179482        4.5631634277
 H        -9.7082388600        5.2923217505        3.8170328397
 H        -8.8414462026        7.4797837508        4.1034738336
 H        -9.4126382315        7.1737018197        2.4649469461
 H       -10.1634061112        9.6584699397        0.5006270632
 H       -10.2830984752        8.0520336625        0.8339853824
 H        -9.0889363798        8.5360327352       -1.9037146442
 H       -10.8881724797        8.6471227955       -1.6357200721
 H        -7.9680985519        6.6291282072       -4.9830364241
 H        -8.8349656658        5.2538344867       -5.8243077814
 H        -6.6051053389        4.6821543768       -5.7475092283
 H        -7.1968087108        3.6873028363       -4.4771610774
 H        -3.0943909489        8.7697287383       -4.4996804639
 H        -2.1671121367        7.3596000871       -3.9383381614
 H        -2.8705213572        8.3779311357       -2.6810188450
 H        -2.1510661729        4.7304580786       -4.1279580512
 H        -3.4405974660        3.8049791683       -3.2119896386
 H        -3.0144025646        5.3846186325       -2.6138153805
 H        -3.2387068289        6.0792306358       -6.1176474285
 H        -5.0865057623        6.0206870370       -6.2242403191
 H        -4.2122706942        4.5013638542       -6.2600890918
 H       -11.3045810646        4.4078484838       -3.7115619567
 H       -12.3037071605        5.7479630459       -3.7640715499
 H       -11.8752618652        4.9616042355       -2.3369427065
 H       -11.1573924220        8.2556239771       -3.4739382437
 H       -11.1648796895        7.1805899446       -4.9251218197
 H        -9.6574367617        7.9626209950       -4.4388559147
 H        -8.8110252557        9.4863628719        3.2128422217
 H        -8.3899381949       10.7566334540        2.0346948648
 H        -7.2236958603       10.3077095831        3.1361922747
 H        -5.2583263196        9.5570162942        2.0809078948
 H        -5.8477564854       10.1106916907        0.4507495977
 H        -5.5466424186        8.3145787592        0.6070245335
 H        -8.3126047207        1.5064528149        3.8653179072
 H        -9.7174202024        2.3853660428        3.7184954767
 H        -8.4588858450        3.2550591902        4.6313997436
 H        -5.6252762743        3.2615245559        2.4240326721
 H        -6.1588385171        1.7703713622        3.0512077740
 H        -6.0908338009        3.1702099597        4.1829076492
 H       -12.2820790321       -2.3636884368        3.4635916792
 H       -12.3572953749       -0.4685956712        3.5884605071
 H       -10.9227864675       -1.4389299118        3.8880382945
 H        -9.9242103452       -2.2713290269        0.4501951573
 H       -10.4401717830       -3.3032171698        1.8483107819
 H        -9.2528929690       -2.2562822609        2.1002154772
 H       -15.1358300634       -3.5132329442        4.7440838629
 H       -15.5840365622       -1.9275497776        5.3346814671
 H       -14.3468887520       -2.1373097050        4.0980324499
 H       -18.0416169864       -3.5928925759        2.6881484068
 H       -18.1920383346       -3.2529357185        4.5125728961
 H       -17.1788848898       -4.5107198649        3.8986405790
 Na       -7.7004492159        4.6575734840       -1.0285679397
