117

 C       -18.3022907011       -0.5974339993        2.7584340321
 C       -16.8756252150       -0.9684999734        2.7797932548
 O       -15.9598105660       -0.1604416468        2.5894734535
 C       -16.3455229674       -2.4147519600        3.1852693836
 C       -15.8255308202       -2.9814278573        1.8505398546
 O       -16.7270693606       -3.1372506856        1.0387524112
 C       -14.2748586071       -2.8977264764        1.5245569657
 C       -13.9980678069       -1.4377193832        1.1108819241
 C       -12.4991195134       -1.4514182510        0.8874112802
 O       -12.0931901125       -1.9522123088       -0.1433125753
 C       -11.2906012048       -1.3146275441        2.0005632821
 C       -11.0024491910        0.1966597337        1.8055959588
 O       -11.6670938617        1.1813315792        2.0214411208
 C        -9.5556105787        0.4640749402        1.2460301914
 C        -9.3264123809        1.8408403692        0.7902731359
 C        -7.9508747146        2.4554806020        1.2279942106
 O        -7.1148542892        2.7640948852        0.3742234526
 C        -7.6330421248        3.0959295618        2.6868465579
 C        -7.9789223813        4.7191824969        2.4472446864
 O        -7.6894011800        5.2944089816        1.3994095611
 C        -8.6782266752        5.5387320918        3.5095698412
 C        -8.7147271517        7.0365514510        3.1325748706
 C        -7.2426500134        7.5666598168        2.6783915660
 O        -6.2372793365        7.0800171481        3.1377125325
 C        -7.2935768217        8.8292679196        1.6175142131
 C        -8.1470284189        8.2523188187        0.3440427008
 O        -7.6439400335        7.6172209800       -0.5037874289
 C        -9.6737965342        8.6715801527        0.0612106624
 C       -10.0553180695        8.1574915008       -1.3404868910
 C        -9.9707844096        6.7368227842       -1.6419256278
 O        -9.8361687099        5.8781426283       -0.8002067148
 C       -10.3549850810        6.2078309338       -3.1381276578
 C        -9.0953209198        5.2952846742       -3.5541398957
 O        -8.8720036646        4.2514450495       -2.9674859379
 C        -8.2210471171        5.5272477898       -4.8467121432
 C        -6.8544432325        4.6267934681       -4.7747583519
 C        -5.8094969007        5.0772403801       -3.7018944623
 O        -5.9439610990        4.9476049847       -2.5226558301
 C        -4.3897819126        5.5430252831       -4.2328017229
 C        -4.3050004793        7.1047547737       -3.8857741597
 O        -5.3084136315        7.6112383690       -3.5877010091
 C        -3.0518710875        7.7989558698       -3.5716241216
 C        -3.4089460337        4.6992718132       -3.4905504584
 C        -4.1751423961        5.3014766376       -5.8073608724
 C       -11.7483580539        5.3351230581       -3.0863828719
 C       -10.6124882832        7.4043904088       -4.0818947807
 C        -7.9622152109       10.1012214889        2.2992535016
 C        -5.9150174760        9.2259313051        1.1608298280
 C        -8.5217760977        2.5830369136        3.9560437467
 C        -6.0874707977        2.9616210674        2.9927673990
 C       -11.8274111380       -1.5171638854        3.4516636604
 C       -10.1913842504       -2.2617679899        1.6001899318
 C       -15.2190577362       -2.3386546993        4.3383514457
 C       -17.4872881589       -3.4055425808        3.6639492233
 H       -18.5621606526       -0.2483560329        3.7371404612
 H       -19.0641499161       -1.2732104234        2.4014522801
 H       -18.3246304226        0.2372407569        1.9806443171
 H       -13.9298598381       -3.3760819381        0.6689869135
 H       -13.4522218324       -3.1860896850        2.2491523070
 H       -14.3328696026       -0.6951132991        1.8176347199
 H       -14.4587204941       -1.2335592617        0.1426302406
 H        -9.3489554462       -0.1709563100        0.4128021358
 H        -8.8434105276        0.1611096713        2.0485946718
 H       -10.1423068757        2.4007225215        1.3403478132
 H        -9.5819616728        1.8758092602       -0.2570157450
 H        -8.2816310272        5.2606510456        4.4341375975
 H        -9.7084951502        5.2614446021        3.5736731050
 H        -9.0609914583        7.6333075928        4.0658224052
 H        -9.4979585483        7.2023018149        2.3326028750
 H        -9.8262666076        9.6899849983        0.0861815542
 H       -10.4453343364        8.4392450276        0.7663969189
 H        -9.4752600908        8.6897386782       -2.0391531527
 H       -11.1298992327        8.3856189939       -1.4168900467
 H        -7.9667705646        6.5646996237       -4.9956926480
 H        -8.7964082648        5.2166764017       -5.8023480370
 H        -6.3794552344        4.6299296083       -5.8435536212
 H        -7.1642086807        3.5586802351       -4.5524933997
 H        -3.0011331628        8.7197778977       -4.1090486860
 H        -2.1634336051        7.2372121544       -3.7763642428
 H        -3.1776819979        7.9336280907       -2.4700551807
 H        -2.5019420245        4.5476429403       -4.1515631719
 H        -3.8297974628        3.6812059427       -3.3341379307
 H        -3.1429662968        5.0112331029       -2.4956749663
 H        -3.1998152818        5.5299450388       -6.0387319609
 H        -4.8608331288        5.8291447491       -6.3814517027
 H        -4.3088374832        4.2900400253       -6.0590998318
 H       -11.7089331251        4.3637953389       -3.6028399802
 H       -12.6600619291        5.8404030083       -3.4374392179
 H       -11.9918771316        4.9329551072       -2.0889443653
 H       -11.4076088001        7.9841690872       -3.5030370004
 H       -11.0447217582        7.0810291622       -5.0378089698
 H        -9.8066439097        8.0957516853       -4.2865306959
 H        -8.9765904283        9.8121999501        2.5591287934
 H        -7.9860706509       10.8892986442        1.5234689547
 H        -7.4433018385       10.4595302651        3.0778233899
 H        -5.4634307313        9.9415556108        1.9168337491
 H        -6.0117035204        9.8264405094        0.1844978686
 H        -5.2941285557        8.3609880185        0.8902445672
 H        -8.1920348090        1.5667870142        4.2213229156
 H        -9.6176731299        2.4044298933        3.8972319053
 H        -8.3929803385        3.3981111517        4.7180744503
 H        -5.5261671107        2.8968470662        2.0471150259
 H        -5.8443915854        1.9905411590        3.5508988555
 H        -5.7208054802        3.7803877503        3.6295924327
 H       -11.7903031390       -2.6240074279        3.7500181825
 H       -12.8006006468       -0.9340156895        3.4482267020
 H       -11.1132268875       -0.9233858550        4.0814169270
 H        -9.7600412121       -1.8749000230        0.6531131116
 H       -10.5545990325       -3.2363871375        1.4226635931
 H        -9.3894800636       -2.5124101503        2.2986088735
 H       -15.3400274888       -3.2071158123        5.0818191473
 H       -15.1326142433       -1.5270913744        5.0280089530
 H       -14.2402631023       -2.4844946552        3.9541097705
 H       -18.3550997802       -3.4262873498        2.9464027472
 H       -17.8429081661       -3.2227511263        4.7255571546
 H       -17.1854004534       -4.4936785620        3.6972456796
 Na       -7.5619617168        4.7717741277       -0.8721821246
