117

 C       -18.3637384183       -0.5849931419        2.9407377979
 C       -16.8689186999       -0.9967456136        2.8889124109
 O       -16.0722728075       -0.1009830091        2.4651564474
 C       -16.3565395993       -2.4658160219        3.2340816734
 C       -15.9019014683       -2.9442397075        1.7704914291
 O       -16.7253293976       -3.2947175319        0.9806042134
 C       -14.5025779202       -2.9868964337        1.4346006448
 C       -13.9769542925       -1.5106059477        1.1433762672
 C       -12.4750584177       -1.5620276108        0.8739042729
 O       -12.1077896153       -1.9725505114       -0.1446353141
 C       -11.3976578751       -1.1867767539        1.9965715989
 C       -10.8301054441        0.2525329411        1.8450468260
 O       -11.6194079297        1.2084652031        1.9379599273
 C        -9.3639871356        0.4593005414        1.3242460598
 C        -9.1713398203        1.9817611866        0.9058737995
 C        -7.9331193292        2.6492952236        1.2712749674
 O        -7.0974345831        2.8175362823        0.3933475513
 C        -7.5874309097        3.2530497556        2.6486471372
 C        -7.9438523890        4.8077947240        2.4050814966
 O        -7.6009359925        5.3302028224        1.3741274681
 C        -8.6477111668        5.6257695659        3.4764648327
 C        -8.7268929424        7.1140559960        3.1488376727
 C        -7.3319271999        7.6289563371        2.7365093497
 O        -6.4127788190        7.1160553233        3.2087933533
 C        -7.3883537973        8.7043388919        1.5158144867
 C        -8.0959285348        8.1594843609        0.1685850269
 O        -7.4427273769        7.4287226645       -0.5884797006
 C        -9.5136067065        8.6129298192       -0.0625125064
 C       -10.3249555853        8.3249806543       -1.3783642457
 C       -10.1469206922        6.7130052361       -1.6420949907
 O        -9.7698179601        5.9111322027       -0.8316700897
 C       -10.4378747522        6.2165269506       -3.1366463815
 C        -9.1322328327        5.1701367205       -3.6822452434
 O        -8.9943613372        4.2440181654       -2.9497778536
 C        -8.1223142729        5.5894762621       -4.7203353760
 C        -6.9632572132        4.6392680131       -4.7296774826
 C        -5.9086697147        4.9737974916       -3.7553224345
 O        -5.9441497548        4.9876742321       -2.5197815930
 C        -4.4141570963        5.4235574984       -4.2403145636
 C        -4.3542835540        6.9644311233       -3.7861919666
 O        -5.3709598779        7.6546014061       -3.6956974118
 C        -2.8659160176        7.5534097309       -3.5060513745
 C        -3.4763899534        4.5170678089       -3.3651854279
 C        -4.1403305613        5.1373723162       -5.7700074620
 C       -11.6553017929        5.4152293424       -2.8573397738
 C       -10.5362436064        7.2682645067       -4.2218995521
 C        -7.9465965400       10.0882032542        1.9579434245
 C        -5.9268102209        9.0626016323        1.1393298569
 C        -8.3132595034        2.6322979786        3.8133432152
 C        -6.1124894914        3.1626350137        2.8401162138
 C       -11.8517251583       -1.5844088863        3.5865473557
 C       -10.3167488699       -2.2183891135        1.8139933802
 C       -15.2913382825       -2.1652702652        4.3394163946
 C       -17.4902710245       -3.2976934693        3.7192598344
 H       -18.5467509353       -0.1174274668        3.9072564512
 H       -19.1314676931       -1.1958553529        2.6773322559
 H       -18.4390685522        0.1168592595        2.1685715680
 H       -14.1157811920       -3.6332839788        0.6307419903
 H       -13.7831396807       -3.3597625910        2.2688899861
 H       -14.3247976010       -0.7511132920        1.9784068425
 H       -14.4553928863       -1.1662610549        0.2218075350
 H        -9.2139812774       -0.1841256237        0.4319788743
 H        -8.7154535719        0.1092096706        2.0894100228
 H       -10.1886523264        2.5218573183        1.2841039190
 H        -9.2543982006        1.9493078545       -0.3168905481
 H        -8.1031738700        5.3558627450        4.4271028020
 H        -9.6251250643        5.2613315989        3.6923254741
 H        -9.1434042171        7.7539366819        3.9511479474
 H        -9.3969010093        7.2067047064        2.2284020345
 H        -9.5352839859        9.6741553137        0.1207761778
 H       -10.1493051255        8.3623640149        0.7541364651
 H        -9.7801007880        8.8811595364       -2.1727169648
 H       -11.3079777840        8.6871295782       -1.1964700501
 H        -7.9040013307        6.6100983762       -4.6312239122
 H        -8.5932161349        5.4326972040       -5.6710955969
 H        -6.5147950382        4.5338502401       -5.7863315124
 H        -7.5123917771        3.6618010152       -4.4844576280
 H        -2.8336745989        8.4941508672       -3.9394296818
 H        -2.0882064739        6.9589060758       -4.0091338863
 H        -2.6690751505        7.6166804651       -2.4146448730
 H        -2.5123046962        4.6495238270       -3.7535059492
 H        -3.7176730049        3.4969427888       -3.4429371472
 H        -3.5164688905        4.6847231977       -2.2805625243
 H        -3.1096848974        5.1795166029       -5.9238484590
 H        -4.6369996780        5.7210200434       -6.4812716185
 H        -4.3684336731        4.1825670229       -5.9270146729
 H       -11.9323714816        4.5328836054       -3.5815682413
 H       -12.6034024117        6.0306974531       -2.8267980507
 H       -11.6288214547        4.8295631371       -1.9210596099
 H       -11.5033544281        7.7414927717       -4.0913217498
 H       -10.4739746120        6.8079847548       -5.2131034528
 H        -9.8061301964        8.0426613807       -4.1232141382
 H        -9.0430534329        9.9961599856        1.9540422033
 H        -7.6525088189       10.7448299001        1.1941527942
 H        -7.5789136058       10.4727244677        2.9798076312
 H        -5.5828456752        9.8243133584        1.7945326256
 H        -5.9735375727        9.4675391129        0.1495643664
 H        -5.2422728060        8.2511719328        1.0617997788
 H        -8.0952640548        1.5326714231        3.9280800463
 H        -9.3766323211        2.6031499064        3.5933892780
 H        -8.2196428487        3.2281404687        4.6701487972
 H        -5.5607922559        2.7129906312        1.9286579028
 H        -5.8198300197        2.5378518953        3.6998006906
 H        -5.7536065908        4.1370428588        3.0721384263
 H       -11.4713455482       -2.6404730511        3.7104353866
 H       -12.9209525169       -1.4097226604        3.6953413598
 H       -11.2517277484       -0.8858832540        4.3312634735
 H        -9.7593628124       -2.0772967540        0.9492196390
 H       -10.6670956171       -3.3064516456        1.8098807244
 H        -9.6287589266       -2.2551273786        2.6892637791
 H       -15.5402442335       -2.4922707866        5.3892548728
 H       -15.1077215669       -1.1718101458        4.5974142801
 H       -14.2926328314       -2.5965528059        4.1162128389
 H       -18.3691507752       -3.1599854403        3.1443810857
 H       -17.6838831010       -3.0910717654        4.8049362605
 H       -17.2505063154       -4.3576539780        3.7296795365
 Na       -7.4647023314        4.9020028264       -0.7439204884
