117

 C       -18.5187584574       -0.5259349988        3.1330362164
 C       -16.9753412102       -0.8075684162        2.8227607181
 O       -16.1937753540       -0.0081073936        2.4541558299
 C       -16.5873122505       -2.3431223637        3.2941665482
 C       -16.0159465698       -2.9791336428        1.7806247517
 O       -16.8203936027       -3.4629058561        1.0299181997
 C       -14.5649203872       -3.0295767129        1.3510853365
 C       -13.8566772221       -1.5916776085        1.2670858882
 C       -12.3882797137       -1.7076940819        0.9214823053
 O       -11.9390419636       -1.9259796066       -0.2197822820
 C       -11.3428010253       -1.3255972424        2.0473063494
 C       -10.8326282375        0.2203074352        1.8224043721
 O       -11.5585904340        1.1957242091        1.9424493356
 C        -9.3121803145        0.5065249681        1.4374549846
 C        -9.2025407782        2.1182116215        0.9723719869
 C        -7.8366943096        2.7076455239        1.1153419512
 O        -7.0118667712        2.8653883968        0.2505345363
 C        -7.5590339933        3.4578046913        2.6083951748
 C        -7.9044006776        4.9068312507        2.4521045381
 O        -7.5460020487        5.5083551256        1.4665281695
 C        -8.6566217259        5.6552589447        3.5791856430
 C        -8.9205093546        7.0764118849        3.1493381165
 C        -7.5530252038        7.6495619023        2.5626368130
 O        -6.4884361372        7.4224658682        3.1676157246
 C        -7.3612486174        8.6695451708        1.3160327677
 C        -7.9693413239        8.0885350627        0.1006032232
 O        -7.3177127074        7.2745594808       -0.6403979886
 C        -9.4211244158        8.6268734997       -0.1279570094
 C       -10.2937079501        8.1715851063       -1.4096932242
 C        -9.9576393034        6.7722695133       -1.8216811933
 O        -9.7561155184        6.0934054792       -0.8079021885
 C       -10.4505222006        6.2074454171       -3.1508056967
 C        -9.2120055508        5.2124565650       -3.3750714647
 O        -9.1101509010        4.1327466927       -2.8641234672
 C        -8.2093829872        5.6578427925       -4.4946769356
 C        -7.0742866001        4.6002638661       -4.6874983602
 C        -5.9351445894        4.9265875864       -3.7174297814
 O        -6.2036450172        4.9820902575       -2.5299903667
 C        -4.3284908792        5.2536322910       -4.1744968482
 C        -4.2752005183        6.7650490014       -3.8126685194
 O        -5.2271135755        7.5998338968       -3.8694566230
 C        -2.8628761312        7.2529739623       -3.5197596456
 C        -3.4360447962        4.4133072415       -3.2700111253
 C        -4.1365570130        5.0989427546       -5.5933734196
 C       -11.6237828291        5.3295711276       -2.8758265488
 C       -10.5606612716        7.2243523926       -4.4006105232
 C        -8.0721470397        9.9832081998        1.7422032036
 C        -5.7116353454        8.7685611494        1.0910572057
 C        -8.2632803645        2.6737500493        3.6980330615
 C        -5.9303879668        3.4700890220        2.8125855588
 C       -11.9609799111       -1.3139966617        3.5274949782
 C       -10.1595008576       -2.3838846909        1.9864556109
 C       -15.4228209150       -2.1643347792        4.2758010931
 C       -17.5631127312       -3.2637874062        3.8447048242
 H       -18.4828541452       -0.3404487062        4.1836540928
 H       -19.1026074399       -1.4717396103        2.9417679116
 H       -19.1256403413        0.0875896898        2.5866490883
 H       -14.2988790421       -3.6101248371        0.3554331654
 H       -13.9085311059       -3.6261162190        1.9520008220
 H       -13.9899667310       -1.0549112791        2.2056062468
 H       -14.5162555661       -0.9301742382        0.5494361085
 H        -8.8860630745       -0.1714286113        0.6644790120
 H        -8.7979561147        0.3304446629        2.3713633599
 H       -10.0085523367        2.7260876465        1.5613128155
 H        -9.5203355750        2.1049215595       -0.1051455089
 H        -7.9644875798        5.8139057202        4.5065575641
 H        -9.4808577875        5.0350523886        4.0336810460
 H        -9.0224376692        7.7755774865        3.9418383120
 H        -9.7014452600        7.1926544296        2.4317741860
 H        -9.4329646646        9.7763556453       -0.1291665975
 H       -10.0356420471        8.4936279771        0.7984645564
 H       -10.1554744244        8.9730412446       -2.1774210705
 H       -11.3204911616        8.0392640464       -1.0729933858
 H        -7.6989316848        6.5752140288       -4.1245846600
 H        -8.6252605681        5.8492198467       -5.4201852123
 H        -6.8079647054        4.4570309419       -5.6839509966
 H        -7.5423606925        3.6697286463       -4.3278616700
 H        -2.7545858798        8.3826735953       -3.6753147779
 H        -2.2280967732        6.7465093117       -4.2605122420
 H        -2.5965178385        6.9785631081       -2.5435887298
 H        -2.5219774023        4.8928077202       -3.2227728489
 H        -3.2764366844        3.4134670120       -3.5614621999
 H        -3.8743534627        4.3009850950       -2.2900289512
 H        -3.0400029446        5.2212527456       -5.7234966415
 H        -4.6189014083        5.8243586963       -6.2173895903
 H        -4.3361496697        4.0105738672       -5.9636407634
 H       -12.2563928118        5.1081713295       -3.7228029577
 H       -12.3170888735        5.9671847380       -2.2603021352
 H       -11.5306671601        4.3295663882       -2.3903098139
 H       -11.5243325032        7.5934635625       -4.3231458520
 H       -10.4349278964        6.7209297015       -5.3549702484
 H        -9.8534237706        8.0686240664       -4.2900845206
 H        -9.1329291016        9.8076753899        1.9657228428
 H        -7.9261508590       10.7447868966        0.9491946116
 H        -7.5560415144       10.3189262601        2.7308805331
 H        -5.2134283226        9.2470656729        1.8644926324
 H        -5.4742049441        9.1290169950        0.1732223173
 H        -5.3125326991        7.7744341797        1.0164078293
 H        -8.0672398690        1.6206010856        3.5664080773
 H        -9.3147034595        2.7781689926        3.5498839384
 H        -8.0238427070        2.9519862762        4.7149455942
 H        -5.4911905872        2.8026164251        2.0721128370
 H        -5.6475110292        3.1016533766        3.7628023801
 H        -5.5212794272        4.5136640357        2.7502788476
 H       -11.9791152862       -2.3587641161        3.7787902176
 H       -12.9129880050       -0.7964523887        3.5507637381
 H       -11.2824440605       -0.7983671877        4.1705350096
 H        -9.8723051805       -2.5039631113        0.9296919654
 H       -10.3145123834       -3.4170710215        2.3788203768
 H        -9.2737788220       -2.0774536522        2.5569746117
 H       -15.7153377309       -1.7481508213        5.1882544307
 H       -14.7005443865       -1.3109541344        4.1276985612
 H       -14.8236457773       -3.0671508850        4.4637406553
 H       -18.3839422500       -3.5425822997        3.2077386056
 H       -17.9488385009       -2.9924304578        4.7706354030
 H       -16.9683133524       -4.0983906873        4.0964449495
 Na       -7.4181302283        5.0189684402       -0.8006081079
