117

 C       -18.7478553337       -0.4777865718        3.4349104839
 C       -17.3430084908       -0.7241784340        2.9951498589
 O       -16.6996416665        0.0483409645        2.3359516889
 C       -16.7926887779       -2.2143446290        3.2112009338
 C       -16.1328027914       -2.8857448948        1.9167613503
 O       -16.8283162863       -3.6232248941        1.2959385320
 C       -14.5346304323       -2.8908313560        1.5446190454
 C       -13.7722405564       -1.5300450620        1.1923375858
 C       -12.2984480478       -1.6997986265        1.0728379436
 O       -11.7320295196       -2.0475739410        0.0723294394
 C       -11.2065731915       -1.1913428249        2.3323957965
 C       -10.7264100356        0.2600321353        1.7331432981
 O       -11.4942556086        1.2212617871        1.5123361989
 C        -9.2341445413        0.5875608186        1.4892819949
 C        -9.1503329935        2.1469516807        1.0560548322
 C        -7.8077735975        2.7977989806        1.2416240494
 O        -7.0830677670        3.0601070276        0.3152270032
 C        -7.3436642726        3.4781155693        2.5222819422
 C        -7.8240825978        5.0602746121        2.2630458008
 O        -7.6262735574        5.7419936708        1.2846895992
 C        -8.6899566625        5.7852211921        3.3311041493
 C        -8.8674145541        7.3037442573        2.9675671432
 C        -7.6037719274        8.0142000155        2.7216284291
 O        -6.8198848196        8.0169617646        3.6356660317
 C        -7.1789068134        8.6787156762        1.2634534818
 C        -8.1037927574        8.3565303618        0.0141249895
 O        -7.4986677441        7.7993504675       -0.9508669014
 C        -9.4989607988        8.8833335760       -0.4503088110
 C        -9.8544135543        8.2226126879       -1.8937063089
 C       -10.1701773911        6.6381530783       -1.7712110720
 O       -10.0096228027        6.0367181209       -0.7406187990
 C       -10.5432216627        5.8838111723       -3.1734469025
 C        -9.3161796237        5.0249210838       -3.4218743259
 O        -9.0959507793        4.0237547514       -2.8011623838
 C        -8.3527544967        5.6024578609       -4.4689993609
 C        -6.9861991762        4.6944777315       -4.5515451865
 C        -5.8363617230        4.7666573951       -3.5386439386
 O        -5.9770509250        4.6693334531       -2.3017519786
 C        -4.2940084172        4.8065136401       -4.0972357753
 C        -3.9376944121        6.4263811293       -4.0235561752
 O        -4.8907662475        7.2119169761       -4.2681190636
 C        -2.6119005043        6.9563407729       -3.4183289621
 C        -3.4874765962        3.8559610113       -3.2398394643
 C        -4.0046316882        4.4756922347       -5.5098811261
 C       -11.8329919115        5.1068659905       -2.9320809329
 C       -10.8932296871        7.0088407400       -4.2222591509
 C        -7.3670270451       10.1934092091        1.5229005439
 C        -5.6964324521        8.4555923507        0.8658270617
 C        -7.8616461989        2.8905794207        3.9181969466
 C        -5.7539418235        3.6637902033        2.4428256557
 C       -11.7605115355       -1.3037484442        3.8147345940
 C        -9.9833727408       -2.1571807594        2.2142778078
 C       -15.7719554586       -1.9982518461        4.3146234414
 C       -17.8484771607       -3.1995828945        3.7941096494
 H       -18.9454888881       -0.7068009275        4.4986948983
 H       -19.4825250349       -0.8562441109        2.7477109293
 H       -18.9681038837        0.5097118892        3.2812949404
 H       -14.3882444814       -3.6236628234        0.6293938218
 H       -13.9230152125       -3.5269239632        2.1685871601
 H       -14.1660650286       -0.6211742158        1.6735247808
 H       -14.3081416425       -1.3705880041        0.2498616360
 H        -8.9031159448       -0.0859484665        0.6680134268
 H        -8.5991574104        0.4700991078        2.3225705439
 H        -9.9285711241        2.7794215378        1.7745513977
 H        -9.5707882458        2.1968971943       -0.0376215293
 H        -8.3281055379        5.7709019802        4.3299223552
 H        -9.6477409739        5.4563391224        3.5073780316
 H        -9.3921924579        7.8394476338        3.7955520128
 H        -9.5443046375        7.3161491119        2.0233665639
 H        -9.3822150740        9.9493518875       -0.5476957941
 H       -10.2801869847        8.7519401369        0.2088162417
 H        -9.0520518116        8.4819685009       -2.6215798345
 H       -10.8057084728        8.6056494876       -2.1718318540
 H        -7.9375320112        6.5674908990       -4.1730829647
 H        -8.7908459564        5.6650959818       -5.4199679095
 H        -6.6928198989        4.6260906167       -5.6358613654
 H        -7.2861586837        3.5561256988       -4.2952872495
 H        -2.7979856685        7.9909982638       -3.1020215545
 H        -1.7904009136        6.9034823475       -4.1452616306
 H        -2.2999853176        6.4521503865       -2.5147243204
 H        -2.4430000345        4.0766655372       -3.0494642293
 H        -3.6318816107        2.7734242493       -3.4225771518
 H        -3.9989087527        3.9464635547       -2.2093603207
 H        -3.0050306520        4.4514209372       -5.7260729717
 H        -4.4361066482        5.1657217839       -6.0915230403
 H        -4.3726234538        3.5088577037       -5.7344529534
 H       -12.7416361433        5.6995462953       -2.9929137423
 H       -12.0418878612        4.4206434852       -2.1124774374
 H       -11.9076417346        4.4474749251       -3.8068426187
 H       -11.5669508304        7.7547127257       -3.8875026652
 H       -11.1853224973        6.4522026616       -5.1442165106
 H        -9.8779853516        7.4241164384       -4.4191878705
 H        -8.3811757224       10.4008835190        1.7108958709
 H        -7.0509846279       10.7397093043        0.7196241020
 H        -6.8052046494       10.3952427122        2.4957910481
 H        -5.0699381651        8.3334377623        1.7834747159
 H        -5.3583325707        9.2287935628        0.1472883777
 H        -5.4493232177        7.4888699285        0.2762159399
 H        -7.0914281276        2.1637888351        4.2970184740
 H        -8.9415841109        2.5508806800        3.9472635983
 H        -7.6369769795        3.5492331530        4.7222669030
 H        -5.2298431093        2.7942893905        2.9766298838
 H        -5.5344230341        4.6123591609        2.9324912512
 H        -5.4554071741        3.7347826451        1.3755264972
 H       -12.4590909994       -2.1778880599        3.7653756290
 H       -12.2410535099       -0.3292498469        4.0937224715
 H       -10.7747104843       -1.4032225942        4.3537496324
 H        -9.6694222476       -2.4202353327        1.2502012417
 H       -10.2611774370       -3.2126540393        2.6444706836
 H        -9.1567932798       -1.7277191571        2.8076970858
 H       -15.6615637480       -1.1164190499        4.8553191777
 H       -14.8263083064       -1.6857690647        3.8214233701
 H       -15.4048038373       -2.8495423987        4.9039168163
 H       -18.8065897776       -3.2112642301        3.2224247464
 H       -18.2861489284       -2.6815188354        4.6964883301
 H       -17.4549442439       -4.2163624099        4.0824749408
 Na       -7.7702924723        4.8786976457       -0.8198166109
