117

 C       -15.3986111534       -2.6600518748       -3.0452451363
 C       -14.2551172349       -3.2594996772       -2.1507967130
 O       -14.4456310786       -3.9106555307       -1.1537471425
 C       -12.7549155893       -2.9253975088       -2.6078997596
 C       -12.2523078238       -1.7268028271       -1.7827689984
 O       -12.1238332823       -0.5956927242       -2.2161227862
 C       -11.8659189129       -2.0445560458       -0.3347447704
 C       -11.3601901135       -0.8632108289        0.4846418152
 C       -10.4134907445       -1.3074582742        1.5938002367
 O       -10.7254882444       -2.2255705198        2.3428374383
 C        -8.9557968739       -0.6940651282        1.6981021552
 C        -8.9043392338        0.0220404685        3.1957023270
 O        -9.6018124392       -0.4433172692        4.0617047931
 C        -7.7065513978        0.9977346229        3.4435966392
 C        -8.1044694858        2.3249760059        4.2414268906
 C        -8.8629170639        3.1734881366        3.2915478263
 O        -8.4307121737        3.6128631989        2.2415852937
 C       -10.2837996976        3.7486944601        3.7971798781
 C       -11.0472469547        4.1235819945        2.4664485133
 O       -11.1412514648        5.2726811332        2.0422891340
 C       -11.6693849269        2.8459736764        1.7334897166
 C       -12.3590362001        3.1944906545        0.3795405917
 C       -11.1558495111        3.6116663346       -0.6198676863
 O        -9.9803749597        3.3472526325       -0.4612898326
 C       -11.5622852987        4.3193550186       -1.9716803870
 C       -10.4482084702        5.3371432996       -2.4654458830
 O        -9.5516856446        5.7048743197       -1.7297844392
 C       -10.6758421651        5.9192074705       -3.8297416437
 C        -9.6333281485        7.0144316523       -4.1706865112
 C        -9.8296831700        8.3043677369       -3.3096032986
 O       -10.7390615244        8.4895133017       -2.5063592054
 C        -8.6666188135        9.3066141795       -3.3896910357
 C        -7.9716948555        9.1889699225       -1.8680772388
 O        -6.8180497328        8.7531709828       -1.9065934954
 C        -8.6822105222        9.6625985705       -0.6069952256
 C        -7.5911935148        9.8262917125        0.5401471229
 C        -7.3241341573        8.4568254082        1.0723319421
 O        -8.3199533460        7.7876035992        1.4388907472
 C        -5.8912435679        7.8922955001        1.4983546114
 C        -5.5475428671        6.6651733166        0.5685719818
 O        -6.4174535582        5.9170662548        0.2075360260
 C        -4.1255918874        6.4638585740        0.1133604804
 C        -4.7712571587        8.9639719779        1.4370947088
 C        -6.0263402574        7.2983731603        2.9621478157
 C        -7.5738409762        8.9054893760       -4.4193730830
 C        -9.1803086161       10.8990720368       -3.4414409297
 C       -12.0238262768        3.2329950466       -3.0045983502
 C       -12.8049360323        5.2184392914       -1.5241418210
 C       -11.1422567817        2.7753521716        4.7239828835
 C        -9.9685108896        5.0562816753        4.5015841358
 C        -7.9553049507       -1.8327410740        1.7850879954
 C        -8.6679913832        0.4071806573        0.6962067065
 C       -11.8502674823       -4.2346026330       -2.2947747131
 C       -12.7167947869       -2.6155349592       -4.1711721448
 H       -15.2528767788       -2.8280993377       -4.0447269948
 H       -15.3041202891       -1.5827249383       -2.8600101284
 H       -16.3381207060       -3.0058323825       -2.6814027801
 H       -11.1261633874       -2.8890252098       -0.3148846517
 H       -12.7431398852       -2.4949738588        0.1733665079
 H       -12.1320682327       -0.3941207503        1.0237450376
 H       -10.8409548242       -0.2152343138       -0.2376455601
 H        -7.4561055153        1.2624013793        2.4010976660
 H        -6.9088179809        0.4309111805        3.9848482686
 H        -7.2101511322        2.8243097417        4.6085532622
 H        -8.6866383328        2.0645610199        5.1982825934
 H       -12.4358719467        2.6647288401        2.4337275428
 H       -10.9179241550        2.0899195329        1.5662123897
 H       -13.1578517646        3.9427785562        0.4093700612
 H       -12.7544436032        2.2977955093       -0.0426040908
 H       -11.6730947463        6.3964860342       -3.9271140042
 H       -10.7306355498        5.1928043986       -4.6304638898
 H        -9.8544707682        7.3264682383       -5.1758738828
 H        -8.6157584766        6.6338483181       -4.1898291759
 H        -9.3998611535        8.8734072701       -0.3097388646
 H        -9.2090747796       10.5665206435       -0.7741644731
 H        -7.9517558173       10.2524328027        1.4241152121
 H        -6.8141597261       10.4043850204        0.1751185694
 H        -3.5285618157        7.3774525771       -0.0243065037
 H        -4.2544524931        6.0402301290       -0.9150327055
 H        -3.6445929929        5.7656675760        0.8418465917
 H        -5.2600569439        9.8420721196        1.8744867710
 H        -4.5512406305        9.2109686499        0.4409367187
 H        -3.7508647426        8.9059782533        2.0193335389
 H        -6.6913508736        6.4221146621        3.0987894831
 H        -6.3676074104        8.0024393583        3.6439392730
 H        -4.9829050131        7.0185840346        3.2593845869
 H        -8.0712782641        8.6899613868       -5.3677941011
 H        -7.1128028643        8.0104787187       -4.0812607059
 H        -6.9166754239        9.7340566217       -4.4646148144
 H        -9.0753062354       11.3300452426       -4.4720766293
 H        -8.4339219355       11.5463713164       -2.8941804292
 H       -10.2180493247       11.1803239604       -3.0731398003
 H       -12.1103427887        2.3188797203       -2.4979353931
 H       -11.3342684398        3.0868294849       -3.8330384423
 H       -12.9793329714        3.3453530346       -3.3616685144
 H       -12.3691338276        5.6697525517       -0.5967909181
 H       -13.7438443340        4.6833827956       -1.4342818988
 H       -12.8810660160        6.0193095913       -2.2649816551
 H       -10.9515697670        1.6924113740        4.4912888840
 H       -12.1990647075        2.9418977358        4.5946040861
 H       -10.9084191992        2.9174422307        5.7661915518
 H       -10.6831139452        5.3460641441        5.2734395548
 H        -9.7504681671        5.8519944875        3.8333604102
 H        -9.0449324828        5.0727829851        5.0719681318
 H        -8.1007599131       -2.6070779842        1.0792436482
 H        -7.9835528127       -2.1687559543        2.8114742148
 H        -6.9428155037       -1.4708548104        1.5993197005
 H        -9.3383911967        1.2707732312        0.8072703194
 H        -8.7437953995        0.0520732451       -0.2968901749
 H        -7.6364105816        0.6584009412        0.8559337246
 H       -12.1497478016       -4.7611681964       -1.4199078947
 H       -10.7670285416       -4.0996885251       -2.2191673040
 H       -12.0525593547       -4.9797286449       -3.1072145543
 H       -13.0720248146       -1.6142451950       -4.4170149057
 H       -13.3552042390       -3.4052086829       -4.6886250324
 H       -11.6500101859       -2.6438955648       -4.3515971879
 Na       -9.1555780894        5.5898071887        0.6743807683
