117

 C       -18.7777484762       -0.3865471774        3.2829922617
 C       -17.3909593780       -0.7632449467        2.8102994602
 O       -16.8259459160       -0.1559673082        1.9810364200
 C       -16.8297266770       -2.1013367520        3.3723005420
 C       -15.8038052458       -2.7354073497        2.2966324494
 O       -16.2119077240       -2.8769154669        1.1512868251
 C       -14.3306909539       -2.5542591556        2.5925699820
 C       -13.8533851347       -1.2908129812        1.6202845363
 C       -12.4064084316       -1.5717920340        1.2160505899
 O       -12.0966509307       -2.5482606414        0.5357699676
 C       -11.1811289857       -1.0970381757        2.1850884522
 C       -10.9580476419        0.4019385352        1.7957980662
 O       -11.8753241552        1.1310521859        1.4152157059
 C        -9.4884168564        0.9862092867        2.0632637142
 C        -9.4634061981        2.4460610909        1.6105716823
 C        -7.9680921576        2.8890694713        1.3508063803
 O        -7.3377616899        2.5167631811        0.4030700025
 C        -7.3185246281        3.7721922018        2.4008835715
 C        -7.7326413703        5.1397347762        2.0904126885
 O        -7.6047137512        5.5477118115        0.9543404438
 C        -8.2734860173        6.0568695784        3.1398294203
 C        -8.8972859295        7.2994730878        2.4825145524
 C        -7.8633822253        8.4373175527        2.4562876583
 O        -7.4950146198        8.8761060247        3.5571872645
 C        -7.0967295855        8.8262982047        1.0620597475
 C        -7.9192494621        8.2634586498       -0.2115872700
 O        -7.3603965819        7.3799272070       -0.9282206576
 C        -9.1817322569        8.9222715903       -0.6887298281
 C        -9.9375409569        8.2225349955       -1.9035245657
 C       -10.2795729635        6.7640772048       -1.7567261866
 O       -10.3756348189        6.2410768853       -0.6394201154
 C       -10.4868072538        5.8318388991       -2.9813328612
 C        -9.0780685943        5.0134074682       -3.2621492020
 O        -8.9620907878        3.8904989232       -2.8584064585
 C        -8.0491906129        5.7631908011       -4.1381985144
 C        -6.9923969864        4.6761958786       -4.4949848452
 C        -5.8244436279        4.5914845366       -3.5769243839
 O        -5.9293156071        4.7171820914       -2.3737474309
 C        -4.3969054195        4.3283950288       -4.1052107369
 C        -3.7976362566        5.7867484178       -4.1341196617
 O        -4.3527617873        6.6075985591       -4.8393828910
 C        -2.4896275838        6.3700905447       -3.5036619161
 C        -3.7227466458        3.4147996902       -3.0022680712
 C        -4.0946323317        3.6934889055       -5.4008324502
 C       -11.5609410626        4.7189403556       -2.7997685124
 C       -11.0200130280        6.7956749616       -4.3060879864
 C        -7.1765541584       10.3098236382        0.9043010582
 C        -5.5029526349        8.3805900733        1.0678232497
 C        -7.7356233420        3.4045373131        3.8053050013
 C        -5.7223512045        3.7635435565        2.2154627143
 C       -11.5113722558       -0.9247809570        3.6950072797
 C        -9.9757338365       -2.0883534278        2.1749194701
 C       -16.1696106361       -1.7701820605        4.7627837416
 C       -17.8340262847       -3.2234180797        3.5909870079
 H       -18.8999184748       -0.4489455789        4.3194777165
 H       -19.6733804759       -0.8749253021        2.6921382233
 H       -18.9742444479        0.6944566440        3.1972195879
 H       -13.6964546911       -3.5292916181        2.4084416030
 H       -14.0766649397       -2.2971166037        3.5686491500
 H       -13.9050164836       -0.3484817064        2.1027902006
 H       -14.5235896642       -1.1905211327        0.6873351114
 H        -8.7942790717        0.3703966002        1.4409672246
 H        -9.1112546349        0.9838066012        3.0504394044
 H       -10.0269648808        3.1075093384        2.4671068938
 H       -10.1542697841        2.5508962297        0.6925315954
 H        -7.5479339389        6.5149999759        3.7825573247
 H        -8.8959374298        5.7112464619        3.8760411368
 H        -9.8549216182        7.5908869275        2.9461034885
 H        -9.1731666131        7.0099610275        1.4187132467
 H        -8.8635421898        9.9459804969       -0.9334873164
 H        -9.8153001405        8.9670880790        0.1368287304
 H        -9.5261252634        8.3095177265       -2.9427562608
 H       -10.8537055465        8.7673385444       -1.9062152635
 H        -7.6906183645        6.6357176076       -3.4892500211
 H        -8.4803352715        6.0869386178       -5.0286802558
 H        -6.5815169394        4.7084030104       -5.5174695332
 H        -7.6516069008        3.6951888769       -4.5271105732
 H        -1.9830438773        7.0851505155       -4.2618214782
 H        -1.7569505722        5.6970894885       -3.0477785124
 H        -2.7941669742        7.1150831662       -2.8201035584
 H        -2.6262558954        3.5750773210       -2.9640358515
 H        -3.7704723506        2.3452289498       -3.2818215391
 H        -3.9818483408        3.6162397106       -1.9092946172
 H        -3.0152724420        3.6097418087       -5.4223315069
 H        -4.4269369772        4.2179449524       -6.3060673818
 H        -4.4981448946        2.6406127850       -5.2884704944
 H       -11.5853831374        4.5296311385       -1.8110986677
 H       -11.5939028573        3.8145594816       -3.3520349190
 H       -12.5448848417        5.0578865015       -3.0250578759
 H       -11.8073979369        7.3059655473       -3.8433137655
 H       -11.3650648408        6.1453771035       -5.1539138955
 H       -10.1628078546        7.4678051515       -4.6112908838
 H        -8.1806098307       10.5714440545        0.8265507827
 H        -6.6945091664       10.5759718547       -0.0418786366
 H        -6.6783871625       10.7909928828        1.7377249634
 H        -4.7353429287        9.0552359234        1.5709797543
 H        -5.0878467434        8.3877979997        0.0205346185
 H        -5.3444192955        7.3296625938        1.5366488265
 H        -7.5307187067        2.2908753937        3.8340652607
 H        -8.8221446025        3.6755268563        4.1084189298
 H        -7.0354975249        3.7766446364        4.6529365646
 H        -5.4038235509        2.8910993840        2.7555505874
 H        -5.3448431723        4.6559039130        2.6207344061
 H        -5.5242384072        3.5248961576        1.1356892869
 H       -11.7435889372       -1.8939543947        4.1061040389
 H       -12.3713908076       -0.2002915377        3.6584356201
 H       -10.5778865696       -0.6470839783        4.0703526291
 H        -9.9155394605       -2.3839104437        1.1200631101
 H       -10.5164792345       -2.9696211082        2.5835844792
 H        -9.0122294274       -1.8257732448        2.5934874847
 H       -16.8180610769       -1.6397524555        5.5663140276
 H       -15.3010785460       -1.1011057579        4.9585414319
 H       -15.6621183572       -2.6373701644        5.2287420174
 H       -18.4174687425       -3.5578725921        2.6370798931
 H       -18.5236879777       -2.7774412568        4.2789785116
 H       -17.4003322243       -4.1256267691        4.0417247561
 Na       -7.8795265904        4.8965782011       -0.9765014677
