117

 C       -19.2103084808       -0.1918249356        3.1021205675
 C       -17.6933457810       -0.5031188825        2.9196413932
 O       -17.0378759251        0.2372050548        2.1738978468
 C       -17.2010922373       -1.9763153213        3.3437351751
 C       -16.0525637329       -2.4975608802        2.6047006100
 O       -16.2283507896       -3.2625111144        1.7306838882
 C       -14.4851740030       -2.1608941035        3.0818142869
 C       -13.7027381507       -1.5920456838        1.9528367033
 C       -12.1167044126       -1.8753872849        1.6842510625
 O       -11.7350442118       -2.5680478660        0.7924348920
 C       -11.0881939072       -1.1180374949        2.4826940579
 C       -10.9074848348        0.3728347452        2.0985532671
 O       -11.7637684635        0.7812773181        1.3352928580
 C        -9.6183915931        1.0555051213        2.3419298106
 C        -9.7441850156        2.6661300033        2.1836870161
 C        -8.3447396239        3.1826585590        1.6597859248
 O        -7.8867598336        2.9512902069        0.5281770418
 C        -7.2787794293        3.8789697116        2.5293964908
 C        -7.5152065659        5.4819643732        2.3406430983
 O        -7.2673179890        5.8479032765        1.2192579828
 C        -8.0231972930        6.5980409136        3.3229019408
 C        -8.8673566413        7.5995627722        2.4455574337
 C        -8.0663610471        8.9121091790        2.0172853070
 O        -8.1917466691        9.9103454855        2.6084500005
 C        -7.0772915984        8.9328972744        0.7436073657
 C        -7.7989728134        8.2970564635       -0.4352034149
 O        -7.2417607321        7.5695082857       -1.1874448913
 C        -9.2646950715        8.8123596806       -0.8141347264
 C        -9.9198284123        8.2755424001       -2.1527105107
 C       -10.0540024047        6.7458046869       -2.0011170297
 O        -9.4746978382        6.2677189864       -1.0324888395
 C       -10.4481803983        5.7389391158       -3.1762647701
 C        -9.0854826045        5.0511539494       -3.4339955393
 O        -9.0503693088        3.8678714584       -3.0762458035
 C        -7.9283766518        5.8181225696       -4.2085577727
 C        -6.7114497228        4.9589366696       -4.5980206183
 C        -5.6688266264        4.5298174033       -3.5343454258
 O        -5.8572494745        4.5468406695       -2.3131031102
 C        -4.4518707426        3.8950515384       -4.0308742004
 C        -3.5000579267        5.1236211345       -4.5770738020
 O        -3.6688435987        5.6931377900       -5.6422253250
 C        -2.3287617217        5.5785536829       -3.7331352323
 C        -3.9253044904        3.0159785213       -3.0490131307
 C        -4.7607151731        2.9666181728       -5.2155842655
 C       -11.2794783891        4.6860573185       -2.3543591392
 C       -11.0620636745        6.0866272000       -4.6457784031
 C        -6.8186346460       10.4210348393        0.3498398067
 C        -5.7624721182        8.1877114864        1.0682240325
 C        -7.4478658898        3.5110480405        4.0522691305
 C        -5.7537353785        3.7444873437        2.2282091968
 C       -11.3701726520       -1.0853822643        4.0496165849
 C        -9.7795913151       -1.8572424477        2.1462584597
 C       -16.9110654931       -1.7403911849        4.8828468094
 C       -18.4150771470       -2.9975859716        3.3842002450
 H       -19.6870969748       -0.4290884764        4.1298595548
 H       -19.7467344556       -0.8693803190        2.5197436826
 H       -19.3785986064        0.8577310372        2.9809047023
 H       -14.0874033134       -3.0792093683        3.4247695103
 H       -14.8002215766       -1.2578326756        3.7889950106
 H       -13.7333743472       -0.4698870061        1.9024762022
 H       -14.0435629892       -1.9494730634        0.9830962492
 H        -9.0819807673        0.7562206154        1.4401245378
 H        -8.9911272407        0.7216492693        3.1475944546
 H        -9.8732861614        3.1457222094        3.2969415880
 H       -10.6647976007        2.9672065105        1.5011094652
 H        -7.3458420022        7.0034016730        3.9829382729
 H        -8.7193124783        6.0898039926        3.9644389417
 H        -9.8694221741        8.0253697331        2.8118881940
 H        -9.0511357696        6.9398318426        1.5739853389
 H        -9.3045513560        9.8231952939       -0.8333624340
 H        -9.7842889675        8.3511084131       -0.0121045220
 H        -9.2775837812        8.3200956412       -3.0172466719
 H       -10.7882094516        8.7780877532       -2.6244294349
 H        -7.6887699058        6.7482235333       -3.6663706280
 H        -8.4610229726        6.0618268367       -5.1532627977
 H        -6.1462499208        5.2083717333       -5.6076958039
 H        -7.1653315098        3.9422578905       -4.8272167443
 H        -1.9851511980        4.9520047429       -2.9531723315
 H        -2.6164090666        6.5477162397       -3.2500753789
 H        -1.4489223769        5.8229873197       -4.4236196534
 H        -3.0601392734        2.3987756591       -3.4248205371
 H        -4.7060209786        2.3910529367       -2.5724153996
 H        -3.6190433027        3.6077182925       -2.1748996829
 H        -4.0619795345        2.2219680831       -5.6223664607
 H        -5.1062888412        3.6038571663       -5.9679699812
 H        -5.6748343028        2.4466892455       -4.8773999590
 H       -10.8297602825        4.2534588617       -1.4551567549
 H       -11.6979418988        3.8916307968       -2.9189077553
 H       -12.1005810235        5.1846940742       -1.9427089119
 H       -12.1839910131        6.1301177270       -4.4250714796
 H       -10.9321405236        5.1991309332       -5.2242289421
 H       -10.6078980636        6.9544548112       -5.0850638654
 H        -7.7712955201       10.8834918755        0.3279673274
 H        -6.2908604437       10.4855607866       -0.5629295201
 H        -6.2270283299       10.9238209030        1.1177896521
 H        -5.3652668544        8.3148226410        2.1169279546
 H        -4.8936067568        8.6801644723        0.4734724706
 H        -5.6949496869        7.1177881190        0.7678693512
 H        -7.9894320086        2.5415276671        4.1563233147
 H        -8.1903760711        4.0943807858        4.6642592543
 H        -6.5034927510        3.7183441166        4.6161870347
 H        -5.4987448440        2.7491482900        2.5098957484
 H        -5.2979377433        4.4412707254        2.9600919897
 H        -5.6072077080        3.9907309586        1.2112386842
 H       -10.7341349915       -1.8399565733        4.5098803071
 H       -12.3807293792       -0.9235648889        4.2167037372
 H       -10.8109598262       -0.1279042440        4.1861530386
 H        -9.2234336605       -1.0879823871        1.5878155425
 H        -9.9747549404       -2.7577757254        1.6572304045
 H        -9.3377987287       -2.1493963275        3.0868767851
 H       -17.5511634751       -2.1455214170        5.7281970546
 H       -16.4794429488       -0.8228684381        5.1868990960
 H       -16.0913617580       -2.3230194136        5.2788612637
 H       -18.8713906446       -2.9566321764        2.4372225913
 H       -19.0869233685       -2.7157538145        4.2378328743
 H       -18.0583549903       -4.0212110893        3.5604089651
 Na       -7.6732006736        4.8168685180       -0.9013635077
