117

 C       -19.1591399835       -0.1012556337        2.9777259391
 C       -17.7125364732       -0.4213662196        2.9478153881
 O       -16.8867022827        0.4561133683        2.6129165930
 C       -17.3383698819       -1.8795269853        3.4245410130
 C       -15.9438426346       -2.3751510560        2.7089212626
 O       -16.0232637573       -3.3739557575        2.0413635810
 C       -14.5972210302       -1.5392693600        2.9855560044
 C       -13.6987675917       -1.2926181656        1.7417898159
 C       -12.2546253143       -1.9639153943        1.7860448693
 O       -11.9815906217       -3.0453391734        1.3173528338
 C       -11.1576691331       -1.2144014965        2.5933189356
 C       -10.8118467161        0.2794847318        2.2125086214
 O       -11.6863459917        0.8980026503        1.6587870075
 C        -9.4825740436        1.0635809433        2.5981399618
 C        -9.6501619391        2.5040342341        2.7167701483
 C        -8.5215446336        3.3759328644        1.9497435940
 O        -8.4521756186        3.4156938794        0.7513566618
 C        -7.3548044759        4.1577256650        2.8071684453
 C        -7.5212450659        5.5121841091        2.1807139879
 O        -7.3392893127        5.6848382084        0.9701752698
 C        -7.7434764721        6.7809990267        2.9323810704
 C        -8.7568668519        7.8233075985        2.3078054275
 C        -8.1323188820        9.1635919320        1.8439418667
 O        -8.5537525083       10.1658823719        2.2564338030
 C        -7.0459591801        9.1799611767        0.5900948576
 C        -7.8033729926        8.6387339941       -0.7495186826
 O        -7.0692338916        7.9612404917       -1.4867226249
 C        -9.2686051788        8.9982558248       -1.1089879992
 C        -9.9071624982        8.0098575654       -2.1635414080
 C        -9.9740971600        6.5552279754       -1.8536902677
 O        -9.8180378508        6.0995669186       -0.6832210480
 C       -10.2056674655        5.5756417380       -2.9299948935
 C        -8.8373201097        4.8782507006       -3.5466788470
 O        -8.6089979505        3.6812705518       -3.4990989621
 C        -7.7628173069        5.7338113371       -4.2187299899
 C        -6.4947568396        5.0761614024       -4.8826958926
 C        -5.5726839904        4.3646086426       -3.7226363535
 O        -5.7828306335        4.6221916017       -2.5479598414
 C        -4.4047046327        3.4608851328       -4.2764778949
 C        -3.3685944416        4.6197069405       -4.8382965140
 O        -3.6370132981        4.9132574393       -5.9657961536
 C        -2.2686237673        5.1078151248       -3.8746126462
 C        -3.8452518712        2.7348328806       -3.0138120989
 C        -4.8588218775        2.3552420992       -5.2249492837
 C       -11.1592831104        4.3565624672       -2.5528022776
 C       -10.8943326433        6.2965525167       -4.1986916731
 C        -6.6590856549       10.6738860320        0.4223759663
 C        -5.7988401257        8.3926878879        0.9076851728
 C        -7.5757751740        4.0177754488        4.3264335651
 C        -6.0053383457        3.4184936112        2.4514842355
 C       -11.6723699620       -1.1607644325        4.1304201479
 C        -9.9412817070       -2.1833122574        2.5126997883
 C       -17.2392306806       -1.7564944036        4.9607126155
 C       -18.4609961853       -3.0726431282        3.1652719791
 H       -19.6736430516       -0.5359933056        3.9194128705
 H       -19.7331398511       -0.7167902167        2.3261011125
 H       -19.2305519607        1.0078499457        2.9917377122
 H       -14.2979472624       -2.3735041071        3.5122200009
 H       -14.9383229863       -0.6083554455        3.4623812171
 H       -13.4726492470       -0.2761518964        1.7385257296
 H       -14.1261198438       -1.5941131847        0.7952460015
 H        -8.7106476831        0.8156315874        1.8165375988
 H        -9.0727506442        0.6469348074        3.4900351299
 H       -10.0047108332        2.6726195743        3.8113499772
 H       -10.5972416662        2.7060635163        2.1767454158
 H        -6.7074956158        7.2688688834        3.0154261863
 H        -8.0665766501        6.6490624424        3.9792026204
 H        -9.4948658137        8.0280281624        3.0601512358
 H        -9.2638693341        7.5216605018        1.4336564001
 H        -9.1872940990       10.0512289111       -1.4952072789
 H        -9.8602550734        8.8735099911       -0.1300676854
 H        -9.3810397759        7.8462137024       -3.1533279715
 H       -10.7991856665        8.3661635602       -2.6509324131
 H        -7.4626659664        6.4524387520       -3.3272990750
 H        -8.3089004408        6.3594113264       -4.8771732318
 H        -5.8973316408        5.7459025277       -5.4215044099
 H        -6.8172372620        4.3361795025       -5.5927143094
 H        -2.4106206878        4.5664495508       -2.9592404315
 H        -2.2962938969        6.1805645066       -3.7034387560
 H        -1.2835304171        5.0074253818       -4.3540261518
 H        -2.7920420641        2.4487449641       -3.1465473050
 H        -4.3938954438        1.8276839697       -2.8467890898
 H        -3.9762581092        3.2693192465       -2.1079328565
 H        -3.9523449918        1.7134319514       -5.5388952762
 H        -5.4527182308        2.8684133143       -6.0012089340
 H        -5.5791897421        1.5710553149       -4.7533423506
 H       -11.2063484450        4.2641243233       -1.4256545118
 H       -10.6217504878        3.4206643364       -2.8234642466
 H       -12.2259687265        4.4204234327       -2.7496775694
 H       -11.6571661567        6.9869534322       -3.8302531628
 H       -11.2866366815        5.5033026840       -4.7763604361
 H       -10.1874179172        6.8693810776       -4.8143663200
 H        -7.5500159352       11.3084482357        0.1396757585
 H        -5.8489584895       10.7756487499       -0.3470902956
 H        -6.3280755869       11.0737204060        1.3725425073
 H        -5.5146905373        8.5600823899        1.8845895239
 H        -4.9904940821        8.4774538141        0.2337290812
 H        -6.0343026414        7.3885283166        0.8707542489
 H        -7.7019185141        2.9971602693        4.5349066670
 H        -8.4403648015        4.5174775919        4.6324169586
 H        -6.7515308952        4.4756345909        4.8601578406
 H        -6.0174245238        2.5253174827        2.9885780491
 H        -5.1838425488        4.0904009284        2.7668196894
 H        -6.0195161836        3.3205970128        1.3387772106
 H       -12.0978712975       -2.1397153446        4.2513999492
 H       -12.3267835906       -0.3419341228        4.1748897518
 H       -10.7998059150       -0.9510126822        4.6993820261
 H        -9.7986485000       -2.5265831754        1.4335880931
 H       -10.2725320922       -2.9445696122        3.1354532408
 H        -9.0973913166       -1.7775749171        3.0788690371
 H       -17.9592919538       -1.1808118482        5.5981725530
 H       -16.3651243802       -1.2913089440        5.3760997436
 H       -17.1316660271       -2.6636585241        5.4709754206
 H       -18.6918825620       -3.2868020155        2.1482644029
 H       -19.3518357751       -2.6938958406        3.6227729792
 H       -18.1775617254       -3.9362661458        3.7434139840
 Na       -7.6443390000        5.3334039247       -1.1583523040
