117

 C       -19.2278656081        0.0189283526        2.3948190647
 C       -17.8738259195       -0.3106497123        3.1694647747
 O       -17.1684314960        0.6319794451        3.4660992355
 C       -17.3633334681       -1.7444096339        3.4449049509
 C       -16.0308022000       -1.9947357972        2.7407754502
 O       -16.0185182507       -2.9055416590        1.9227385868
 C       -14.7127945918       -1.2552772762        3.2081220305
 C       -13.6625403787       -1.1816660252        2.0890588359
 C       -12.2339714967       -1.8487469305        2.3888344732
 O       -12.1320892417       -3.0508240976        2.1174406113
 C       -11.0513123892       -0.9790392662        3.1035929092
 C       -10.8238065350        0.4653486797        2.5225304594
 O       -11.8098602656        1.0039324487        2.0144532430
 C        -9.4858310426        1.1052429638        2.5006079941
 C        -9.8692809710        2.6166018037        2.7692659718
 C        -8.8743828707        3.6841067508        2.1488899239
 O        -8.9259932609        3.6712166810        0.9225787197
 C        -7.5928600694        4.3383408242        2.9428940963
 C        -7.2524352485        5.7074250689        2.2821984602
 O        -6.3033230338        5.6712105008        1.5202080800
 C        -8.0139162405        6.9902603821        2.7157903099
 C        -8.6752376566        7.8046208997        1.6426648428
 C        -8.1412723656        9.2741287688        1.4189176955
 O        -8.5220577253       10.1345105213        2.1447017684
 C        -7.2241284529        9.5302703619        0.0906047896
 C        -7.6653189756        8.5049169927       -0.9144347625
 O        -7.0100446868        7.5534446195       -1.2809959466
 C        -9.0872251830        8.9430695334       -1.7512616804
 C        -9.7059747931        8.0315887615       -2.7852942805
 C        -9.5712555425        6.5665085202       -2.3442614849
 O        -9.3237165960        6.2116132282       -1.1910434744
 C       -10.0318222524        5.4140306352       -3.2986077487
 C        -8.5493928113        4.8087874327       -3.5008685383
 O        -8.2118549943        3.8334069460       -2.8227631737
 C        -7.5735542156        5.7025244786       -4.1890009109
 C        -6.3171532304        4.9545839183       -4.8361977185
 C        -5.5326644658        4.1996805866       -3.7671278542
 O        -5.6178496512        4.4527221543       -2.5604596684
 C        -4.6988964753        3.0333031315       -4.2244962460
 C        -3.5068087842        3.7623217637       -5.2222019279
 O        -3.6190744944        3.8639751383       -6.3691224223
 C        -2.2867211533        4.1885121320       -4.4637768963
 C        -3.9041137866        2.2251075719       -3.0001932508
 C        -5.4444200967        2.0019002879       -5.1369651320
 C       -11.1141177043        4.5361054724       -2.5392022654
 C       -10.6440502241        5.8445102151       -4.6553268844
 C        -7.3746282084       10.9957307843       -0.3740616433
 C        -5.7277904020        9.1249104816        0.4870040011
 C        -7.9349039938        4.4228279808        4.4570553151
 C        -6.3705611789        3.2619682932        2.7127324772
 C       -11.5487065605       -0.8539584151        4.5681461386
 C        -9.6025798518       -1.8041169383        3.1190565658
 C       -17.2291047998       -1.6580925532        4.9626825383
 C       -18.5424266075       -2.8184654889        2.9250688142
 H       -20.0951530621       -0.4991647167        2.7624115702
 H       -19.0515497560       -0.2670249600        1.3022558446
 H       -19.3913033632        1.1392487345        2.3013540325
 H       -14.1639696522       -1.7933531267        4.1340210000
 H       -14.9642513769       -0.2457586992        3.3974367967
 H       -13.6796304106       -0.1899711520        1.6591592559
 H       -13.8909102110       -1.9601133281        1.3586053463
 H        -9.0268094557        1.0443298446        1.5494095010
 H        -8.6586729033        0.7769071325        3.1594736759
 H       -10.1110907407        2.5455114117        3.8802147419
 H       -10.9093974824        2.8137145763        2.3121887311
 H        -7.3005709215        7.6284634835        3.1594728464
 H        -8.7293524622        6.6356797817        3.4050186822
 H        -9.7232476491        7.9708558196        1.7257395848
 H        -8.5335808311        7.2902587525        0.6785542602
 H        -8.8078137444        9.8474897403       -2.2718021782
 H        -9.8297007598        9.2330251420       -1.1031559173
 H        -9.5558756157        8.1042959842       -3.8655914370
 H       -10.8275431330        8.0624054733       -2.8282454443
 H        -7.5872635462        6.4514117200       -3.4542463209
 H        -8.1293763170        6.2174208454       -4.9919836808
 H        -5.6634781059        5.7439947648       -5.3233609516
 H        -6.8313720495        4.2449820806       -5.6171812154
 H        -2.1902593374        5.3196825986       -4.5259707859
 H        -1.4535553139        3.5995339501       -4.7723997271
 H        -2.3758289685        3.9724225793       -3.4230008220
 H        -3.0006124715        1.8220095979       -3.4235404793
 H        -4.5508335121        1.4519555617       -2.6862593024
 H        -3.6365204942        2.9238983675       -2.2255171115
 H        -4.8780832908        1.0512247464       -5.3684368616
 H        -5.6347777393        2.3441761073       -6.1951796840
 H        -6.3631963078        1.7428081238       -4.5676712669
 H       -10.9608940827        3.5258139711       -2.6236977278
 H       -12.0125716400        4.6742920039       -3.1890213176
 H       -11.3225128365        4.8645115199       -1.5230317151
 H       -11.5073826343        6.3875667079       -4.4755913780
 H       -10.9422163492        4.8932269165       -5.1628967749
 H       -10.0273297678        6.3940178453       -5.3897986495
 H        -8.3479657602       11.4073126264       -0.2091808788
 H        -7.1542851693       11.1765102835       -1.4996201820
 H        -6.6690216978       11.5091914178        0.1336039687
 H        -5.3189389498        9.6714521998        1.3434556615
 H        -5.1318383622        9.3805833941       -0.3738058994
 H        -5.6763520880        8.1065926602        0.6984241647
 H        -8.4669466450        3.5831861342        4.8075433741
 H        -8.5070489085        5.3127187291        4.6628219138
 H        -7.0174974811        4.3156590914        5.0664575199
 H        -6.5800606951        2.4774053622        3.3910075923
 H        -5.4572875568        3.7018702618        2.8762144130
 H        -6.5701789022        3.0521899875        1.6486012017
 H       -11.9377377309       -1.7835405038        4.8925470893
 H       -12.4177411794       -0.2004182836        4.4694278652
 H       -10.7639394614       -0.5360721511        5.1097546590
 H        -9.4314872892       -2.0440404236        4.1696433366
 H        -8.7688498833       -1.1156346589        2.8561956144
 H        -9.6041648208       -2.6451513879        2.4116733180
 H       -18.0502378910       -1.4507760520        5.5895729965
 H       -16.4446227377       -0.9730697236        5.3797699153
 H       -16.7595443177       -2.5365534222        5.4549393528
 H       -18.4334649922       -2.8940700318        1.8439532603
 H       -19.4244754655       -2.4171823694        3.1786795458
 H       -18.4089012527       -3.7626107542        3.3463544246
 Na       -7.6208297555        4.7135977117       -0.6586939561
