117

 C       -18.8422964295       -0.0533099070        2.1116326495
 C       -17.8993393403       -0.2248521228        3.2835392362
 O       -17.3433938127        0.7735301227        3.7462900740
 C       -17.4077140287       -1.5681915554        3.5661362488
 C       -16.1074882360       -1.9315689619        2.6864810882
 O       -16.3400057657       -2.3676354178        1.5658450013
 C       -14.7956393327       -1.5311466442        3.3467173481
 C       -13.7067523945       -1.5777719176        2.3245338412
 C       -12.1575879877       -1.6712897488        2.7930645050
 O       -11.9060760949       -2.8947872273        2.5326740042
 C       -11.0830769194       -0.7216344282        3.2424708377
 C       -11.0815683219        0.8018027280        2.6781861274
 O       -12.0029072638        1.2560421297        2.0406746185
 C        -9.8009014487        1.5887728279        2.8701466857
 C       -10.0056057002        3.1950662592        2.7506665352
 C        -8.7121380002        3.7099587248        2.1305044453
 O        -8.5894667869        3.9060997411        0.9060043982
 C        -7.4724416572        4.3132194313        3.0461320765
 C        -7.0832674480        5.7550696575        2.3835008011
 O        -6.6864656396        5.7705652317        1.2590837910
 C        -7.9771241753        7.0332069765        2.7756295352
 C        -8.5835933311        7.5598843552        1.4567579566
 C        -8.1914426782        8.9959833139        1.2439063141
 O        -8.1394543565        9.8054460584        2.1567058333
 C        -7.3385105166        9.4527177205       -0.0646688524
 C        -7.6992179076        8.8448012837       -1.4649779727
 O        -7.0364006367        7.9076350753       -1.8172810537
 C        -9.0946049383        9.1055118485       -2.1741147913
 C        -9.4043337847        7.9218238220       -3.1734385440
 C        -9.7377199989        6.6105416109       -2.4457880339
 O        -9.7613429493        6.4981736360       -1.2741935549
 C        -9.9292239317        5.3232277777       -3.4176664632
 C        -8.5996393443        4.7070153951       -3.4557099145
 O        -8.4230812878        3.6225775895       -2.8959990597
 C        -7.4652413830        5.4651498895       -4.0178596195
 C        -6.3870925434        4.6311068395       -4.5633609948
 C        -5.4743071770        3.8015810757       -3.4831702390
 O        -5.4166439390        4.1991433946       -2.3247228335
 C        -4.5885085199        2.7299527200       -4.1628205916
 C        -3.5499058087        3.3463388681       -5.2174606771
 O        -3.9692510144        3.5579564295       -6.2884254996
 C        -2.1604094465        3.8217326826       -4.7475774360
 C        -4.0177947032        1.8958642797       -2.9030190950
 C        -5.6569531087        1.6535262304       -4.8626723504
 C       -10.9873222742        4.2525664582       -2.8935098887
 C       -10.4839929655        5.7615874384       -4.8089872823
 C        -7.5131774588       10.9803492205       -0.1704195934
 C        -5.9051209958        9.0214179964        0.3140747117
 C        -7.9015100428        4.4864460743        4.5041316910
 C        -6.2411320736        3.3927305320        3.0112642263
 C       -11.5106393006       -0.3860739364        4.8158171650
 C        -9.7182349884       -1.3602602051        3.1382681370
 C       -17.2144310496       -1.8222788886        5.0345533612
 C       -18.4867019151       -2.7177360552        3.1023255929
 H       -19.8333229595       -0.1691803170        2.3595637684
 H       -18.4535086016       -0.5889211251        1.1847530597
 H       -18.7222297058        0.9929494266        1.6657315535
 H       -14.6203601608       -2.1853725514        4.2446165791
 H       -14.9164929719       -0.5285432393        3.7623345348
 H       -13.8390877039       -0.7823333748        1.5619697915
 H       -13.8455116162       -2.5170334289        1.8804841765
 H        -9.1355450465        1.3650351648        2.0416316516
 H        -9.2380594298        1.2115060037        3.7732483640
 H       -10.2267439044        3.6911269099        3.7619303751
 H       -10.8021792164        3.2035050583        1.8483846566
 H        -7.3930914589        7.8406563718        3.3680288213
 H        -8.7856752039        6.6655237236        3.5205475870
 H        -9.6774811802        7.5768343213        1.6098347587
 H        -8.3858761125        6.9440195954        0.5996274321
 H        -9.1432547395       10.0589020780       -2.8139295559
 H        -9.9211266627        9.3768713001       -1.4525845894
 H        -8.8773027985        7.7455017263       -4.0904774369
 H       -10.4764604436        8.2129512504       -3.4954408677
 H        -7.0456972931        6.1329533184       -3.2910833434
 H        -7.9645368657        6.2640818895       -4.7677185007
 H        -5.7921643517        5.3287650520       -5.0760275106
 H        -6.8396380677        3.8909043454       -5.1942169623
 H        -1.3051165885        3.3725689202       -5.3621899318
 H        -1.9538513078        3.6914540902       -3.7047693489
 H        -2.1819736370        4.8716943185       -4.9856796850
 H        -3.4465318379        1.0806208975       -3.3264449284
 H        -4.9274333551        1.4612674464       -2.4972361990
 H        -3.4072558974        2.5347393163       -2.2010025937
 H        -5.0661098012        0.7420606538       -5.1392195045
 H        -6.0283542622        2.1335156595       -5.8103363453
 H        -6.4646894599        1.3373273653       -4.2211152588
 H       -11.3166152556        3.7270229095       -3.7793661392
 H       -11.7465821959        4.8039863050       -2.2229422445
 H       -10.5061370233        3.4452495329       -2.2308289181
 H       -11.4845677317        6.1585483130       -4.7565331675
 H       -10.5674510475        4.9350113197       -5.5699516599
 H        -9.8451459030        6.5207167073       -5.2781626132
 H        -8.2513952919       11.2570959454       -0.9570580539
 H        -6.5154128750       11.5555896967       -0.3728191970
 H        -7.6837267120       11.3571438865        0.7770871838
 H        -5.4453783700        9.5397434596        1.1969998318
 H        -5.2229127420        9.3254640777       -0.4785165436
 H        -5.9805928194        7.9273960192        0.4610641948
 H        -7.6623021402        3.6282054771        5.1173272371
 H        -8.9395244347        4.7564212827        4.6764838594
 H        -7.2621418909        5.2909108844        4.8754702351
 H        -6.5726485015        2.3077214990        2.8575343724
 H        -5.7229819997        3.5981285843        3.9302725261
 H        -5.7673407196        3.7796976218        2.0971512361
 H       -11.1379336380       -1.1933227043        5.4255377405
 H       -12.6386463270       -0.1053383116        4.9421320258
 H       -10.7240131926        0.3186317466        4.9941763857
 H        -9.0760540716       -0.9024001718        2.4180688327
 H        -9.8169136814       -2.4543527681        2.8191777934
 H        -9.3135845698       -1.2933733472        4.1253402144
 H       -18.1007282432       -1.7920399093        5.5577887771
 H       -16.5606386532       -1.1921399990        5.5928205849
 H       -16.9002377072       -2.7865550778        5.4245456101
 H       -18.6758858358       -2.5095905255        1.9753330906
 H       -19.3088547219       -2.4186785390        3.6937845136
 H       -18.1956516776       -3.7765892648        3.2949422223
 Na       -7.0981732557        4.6760431493       -0.9320702026
