117

 C       -18.7529519753       -0.0561698441        1.9486925482
 C       -17.7833836713       -0.1259362523        3.1707871384
 O       -17.3381540683        0.6875769024        3.9244201012
 C       -17.5283746375       -1.6297656819        3.6143336273
 C       -16.2334285771       -1.7975602480        2.7585358267
 O       -16.2574052956       -2.1278301371        1.6001735560
 C       -14.8571876468       -1.5698275884        3.4138478842
 C       -13.7933565739       -1.5135076004        2.2903839811
 C       -12.3123863260       -1.9124146688        2.7444064289
 O       -11.7075469142       -2.8665265583        2.7314710794
 C       -11.1382471668       -0.4868341870        3.4156403743
 C       -11.2007240332        0.8910649782        2.6646161152
 O       -12.1134561186        1.2908558968        2.0166269032
 C        -9.8397513785        1.7002392002        2.8901702392
 C        -9.9569002203        3.2427476609        2.6496194024
 C        -8.6570803924        3.8442747602        2.1481863955
 O        -8.4952794134        3.7838871246        0.9406993332
 C        -7.4689489762        4.4233734367        3.0564898529
 C        -7.3353163302        5.6580600255        2.1245293839
 O        -6.5927851287        5.6687863958        1.1487079052
 C        -8.0634680566        6.8267805701        2.6375458406
 C        -8.6649945737        7.5828496762        1.4607681672
 C        -8.0369722853        9.0169369398        1.2476967930
 O        -8.1854868601        9.7742400467        2.1251342471
 C        -7.4013212192        9.4099041635       -0.0752422030
 C        -7.8153938488        8.5865202130       -1.3808167656
 O        -6.9263094177        7.9457726273       -1.9281755276
 C        -9.1871334664        9.0275815633       -2.0356116056
 C        -9.6315096656        8.0908102899       -3.2290165523
 C        -9.8726120814        6.6482190943       -2.5703991058
 O        -9.8394865055        6.5748827738       -1.3359942212
 C       -10.0045337580        5.3557181619       -3.4706167583
 C        -8.5266992779        4.6498225204       -3.4686846673
 O        -8.2256753994        3.5705102118       -2.9341599938
 C        -7.2890550400        5.5102385546       -4.0075985505
 C        -6.3001274545        4.4950996956       -4.5594650703
 C        -5.4418597254        3.6912829080       -3.5259111072
 O        -5.4088615464        3.9458851276       -2.3015922354
 C        -4.6125496607        2.5968604529       -4.0760029245
 C        -3.6309032556        3.2137371221       -5.1374763241
 O        -4.0879956263        3.4734195519       -6.2236394460
 C        -2.2583986415        3.5934680285       -4.7459810674
 C        -3.8611677365        1.7997405478       -2.8719818884
 C        -5.5764711496        1.5945925985       -4.7870552911
 C       -11.1045796404        4.4457936036       -2.8272875314
 C       -10.4953771570        5.7031483378       -4.9174010919
 C        -7.5277563369       10.9903915934       -0.2436738171
 C        -5.8343494955        9.0566606266        0.1405053058
 C        -7.9114695027        4.5992490920        4.5648901431
 C        -6.2262114447        3.4556634073        2.9762503606
 C       -11.5444940776       -0.3273149784        4.9125418659
 C        -9.7357041239       -1.0836021365        3.2476870913
 C       -17.0204598333       -1.7834584067        5.0858191438
 C       -18.5569891906       -2.6918277448        3.0613814144
 H       -19.7835176115       -0.4026366856        2.3376272040
 H       -18.2796393028       -0.5114109049        1.0959117638
 H       -18.9537079995        0.9574387384        1.4712921275
 H       -14.6881924211       -2.5517948906        4.0582548212
 H       -14.8271377735       -0.8144896595        4.1741503089
 H       -13.7022322981       -0.5758805265        1.8746898502
 H       -14.1554313701       -2.2594729305        1.5471817602
 H        -8.9878777592        1.2713425783        2.3562469355
 H        -9.6655662159        1.4953628187        3.9834758990
 H       -10.3392312095        3.6292225775        3.7103749110
 H       -10.6730162137        3.2323179287        1.7858612029
 H        -7.1419003001        7.2871523432        3.0385085205
 H        -8.6397317279        6.6381113286        3.5245977248
 H        -9.7089382106        7.6817186695        1.6029327993
 H        -8.5127358855        6.9602056466        0.5679478539
 H        -8.9816037061       10.0352132833       -2.4780521501
 H        -9.9242104413        9.3068304394       -1.3513425863
 H        -8.9655502212        7.9973685588       -4.1400970050
 H       -10.6312823648        8.4451958182       -3.5785129128
 H        -6.7821011424        6.1713373754       -3.3432599998
 H        -7.7748333114        6.1360858313       -4.6775432026
 H        -5.6701068371        4.9337529162       -5.3609222426
 H        -6.9327892487        3.5868982102       -4.8957825260
 H        -1.5040328132        2.7767059705       -4.7709777800
 H        -2.2400380535        3.9975019314       -3.7689005266
 H        -1.9807583890        4.3394086666       -5.4515601440
 H        -3.4266652494        0.8993843700       -3.3411903284
 H        -4.4570453331        1.5792868870       -2.0257277219
 H        -3.1205868999        2.4923327263       -2.6654072656
 H        -5.0606921233        0.5582984618       -4.8204312658
 H        -5.8921713806        1.9691915430       -5.7968761711
 H        -6.5275538141        1.4319824689       -4.0612037958
 H       -11.6486567250        3.8008195177       -3.5476965589
 H       -11.6189664072        5.1022116271       -2.0925759462
 H       -10.5557339691        3.7606015018       -2.1418212429
 H       -11.4686786983        6.0770487911       -5.0261012023
 H       -10.4847267873        4.8614155907       -5.6230556547
 H        -9.7735338342        6.4451636678       -5.3285039952
 H        -8.0986354852       11.3038973050       -1.1354142161
 H        -6.5520411137       11.5238605366       -0.2324398050
 H        -7.9242749077       11.3642767444        0.6884165218
 H        -5.4316430192        9.4528886624        1.0162664777
 H        -5.2729647472        9.6103216679       -0.5728123297
 H        -5.7202499474        8.0414055891        0.0524324698
 H        -7.8793662226        3.7043897438        5.0615067439
 H        -8.8647214926        4.9838260831        4.7558294861
 H        -7.1950884179        5.2892220031        4.9829513571
 H        -6.6475059994        2.5086093007        2.8376678712
 H        -5.7172351191        3.6085373534        3.9073326246
 H        -5.6836748074        3.7418200731        2.0240860135
 H       -11.2537554964       -1.2843720593        5.3171828367
 H       -12.5835763294        0.0049890512        5.0662183003
 H       -10.7674494461        0.2361041181        5.3221171121
 H        -9.6125101247       -1.2132155880        2.1402297393
 H        -9.7776339192       -2.1026140124        3.5718113972
 H        -8.8824592271       -0.5185536862        3.7198207629
 H       -17.6426683540       -2.0066557806        5.9041355936
 H       -16.4458109330       -0.9103840627        5.3746644025
 H       -16.3819514803       -2.5715701069        5.3516025148
 H       -18.6507978131       -2.4046873413        2.0715590670
 H       -19.4174346919       -2.4560603312        3.6403682647
 H       -18.2931205125       -3.7396152641        3.1349379859
 Na       -6.9355356693        4.8201336530       -0.9120318753
