117

 C       -18.2373083626        0.1746280963        2.0326754121
 C       -17.8288199151       -0.1108651475        3.4201425800
 O       -17.6276545191        0.7880775041        4.1946953603
 C       -17.2711341155       -1.5988310373        3.6458932976
 C       -16.0385669628       -1.6886627061        2.7347406559
 O       -16.2175214268       -1.6116967450        1.5390701424
 C       -14.6297255307       -1.9362179742        3.2301263952
 C       -13.5745136026       -1.1307284125        2.4040074521
 C       -12.1505244216       -1.4191260827        2.9425922991
 O       -11.9330233686       -2.5788610436        3.1649599210
 C       -11.3219447996       -0.3801398560        3.5616642096
 C       -11.1815661528        0.9715124563        2.8996160113
 O       -12.1298865413        1.3314599808        2.3142611667
 C        -9.9956972859        1.9424206007        3.0685847551
 C       -10.1388501157        3.4178213492        2.2748001961
 C        -8.7214590484        3.6299087911        1.8041397105
 O        -8.2756969738        3.2744644985        0.6841626470
 C        -7.6644345227        4.2972940065        2.7504829527
 C        -7.2114429655        5.7499850154        2.0924712896
 O        -6.3736295755        6.0198726389        1.2920514342
 C        -8.3758728183        6.8549163471        2.2964957869
 C        -8.5125704182        7.6258027716        0.9740858236
 C        -7.9868507726        9.0834984272        0.8969136220
 O        -8.0746899333        9.8532800237        1.7679456980
 C        -7.2597967525        9.6077342636       -0.4164018950
 C        -7.9209545240        8.7330863060       -1.4242189618
 O        -7.5284250709        7.6405473261       -1.6913846232
 C        -9.3435286231        9.1394628256       -1.9564208810
 C        -9.7430284651        8.1987262571       -3.0675803008
 C        -9.9348770788        6.6918391067       -2.5692732057
 O        -9.9316950516        6.5269484645       -1.3682888636
 C        -9.8977889015        5.4144139840       -3.5134057059
 C        -8.5156839614        4.7131938592       -3.2713646008
 O        -8.3483750362        3.8025262484       -2.4562861132
 C        -7.2793030492        5.2063440505       -4.0501822259
 C        -6.1493453261        4.3208790524       -4.5203489776
 C        -5.4293214048        3.3638350999       -3.3977181654
 O        -5.6080785972        3.5683929464       -2.1959217638
 C        -4.5517774364        2.1583591458       -3.8779877209
 C        -3.6606444016        2.8224124378       -5.1443704327
 O        -4.1973012570        3.0604192270       -6.1573229007
 C        -2.0374554796        2.9157047295       -5.1004019092
 C        -3.8028204538        1.5992451927       -2.6179690420
 C        -5.3809809810        0.9677420802       -4.5123492221
 C       -10.9334019142        4.4595390856       -3.0371501243
 C       -10.1436161796        5.7561606684       -4.9578087125
 C        -7.3371781174       11.1406580892       -0.5941524013
 C        -5.8198338945        9.1525538198       -0.0643785776
 C        -8.0917169883        4.4500330347        4.1583445025
 C        -6.3229703792        3.3787990328        2.7431125237
 C       -11.8126434603       -0.0741885912        4.9563148588
 C        -9.8650375782       -0.9416976257        3.8171524924
 C       -17.0634358023       -1.5974937660        5.0684540008
 C       -18.2975860751       -2.6527389173        3.1040735395
 H       -18.9903848987       -0.5293364565        1.6846085529
 H       -17.3524960333        0.3450242411        1.4778717393
 H       -18.8313582968        1.0486826276        1.9155691778
 H       -14.4429531576       -3.0557064151        3.3421070819
 H       -14.5014303689       -1.7545449840        4.2574032217
 H       -13.9490137270       -0.1188491194        2.5335333392
 H       -13.7850128634       -1.3088919290        1.3560658566
 H        -9.0761217216        1.5229462819        2.8013888360
 H       -10.0882973917        2.0700701481        4.1725300627
 H       -10.6225776409        4.1805937072        3.0717065543
 H       -10.8461770546        3.1805298548        1.4087989499
 H        -8.2313580867        7.5753543529        3.1986329608
 H        -9.3518632381        6.3467807821        2.6298167230
 H        -9.6110052493        7.7934409469        1.0155057203
 H        -8.3668178401        7.0606363897        0.0459916097
 H        -9.2346222656       10.2045311266       -2.4685565875
 H       -10.1397702962        9.3589419009       -1.1855797099
 H        -9.0361333523        8.2610627504       -3.8726851289
 H       -10.8095498464        8.2789584557       -3.3823132361
 H        -7.0388269818        6.0243741826       -3.3170856551
 H        -7.6847175693        5.8508922462       -4.9284117577
 H        -5.3819287890        4.8723319479       -4.9407202866
 H        -6.5837069800        3.6908285760       -5.2800173133
 H        -1.6078317229        2.2803724146       -4.2304538175
 H        -1.6246847920        3.8818560973       -4.8520318347
 H        -1.7200211121        2.6324136520       -6.1109328220
 H        -2.8342698011        1.1705077271       -2.9609610520
 H        -4.4944759583        0.7692565840       -2.3410485136
 H        -3.9244748573        2.2996613031       -1.7809107806
 H        -4.6999319950        0.2018418497       -4.4868821121
 H        -5.7526020440        1.1007809334       -5.4277357002
 H        -6.1797445043        0.6991173619       -3.8322090881
 H       -10.6560438836        3.4787476917       -3.3364592330
 H       -11.8571580531        4.8566010514       -3.4881211991
 H       -11.0480859004        4.5413420105       -1.9588490893
 H       -11.0378510318        6.3143731184       -4.9900086670
 H       -10.3687335536        4.9755383945       -5.7368491532
 H        -9.4318294519        6.4792697125       -5.4051897941
 H        -7.7898442905       11.4848069391       -1.5558162254
 H        -6.2534819142       11.5418947602       -0.6053817539
 H        -7.8470513772       11.6100307828        0.1893366693
 H        -5.3429934452        9.9124870251        0.6446408441
 H        -5.1316242583        9.2342845203       -1.0057609327
 H        -5.8177891989        8.0525152140        0.1714514617
 H        -8.5413757892        3.5232209103        4.4911834316
 H        -8.8984690475        5.2003558859        4.4220245602
 H        -7.2378027596        4.9229198272        4.7594534820
 H        -6.3979816134        2.7645818503        3.6298701572
 H        -5.5296984472        4.0862055484        2.7645138606
 H        -6.4402808823        2.6412004853        1.8883888008
 H       -11.9095457110       -1.0517594963        5.5206757352
 H       -12.7843291367        0.4960165785        4.6963839016
 H       -11.0878036241        0.5839696494        5.4815113804
 H        -9.4287052733       -1.3103350482        2.9079692967
 H        -9.8969370032       -1.8286395934        4.4446590238
 H        -9.1690335862       -0.1848399149        4.1531740672
 H       -17.8462357315       -1.4050023964        5.7344668882
 H       -16.2603932534       -1.0233716956        5.5481358038
 H       -16.8489016318       -2.6013240534        5.4785762515
 H       -18.0540604533       -2.7810868712        2.0192039832
 H       -19.3523470658       -2.3931841949        3.3603015786
 H       -18.0161138996       -3.6503874048        3.6249574738
 Na       -7.0525120521        5.0386779026       -0.8919206252
