117

 C       -18.0924960491        0.7671090137        2.1340268743
 C       -17.8527980632        0.1015446837        3.4987750495
 O       -18.2153586442        0.5962005259        4.5597268077
 C       -17.1565501936       -1.3389174051        3.4974468895
 C       -16.0303475430       -1.5212718515        2.5221072591
 O       -16.4103020232       -1.1549917941        1.4052737773
 C       -14.6684904002       -2.1122128465        2.9414088602
 C       -13.5870925988       -0.9896451705        3.2899539373
 C       -12.1532229180       -1.2695679275        3.6997814222
 O       -11.5770192922       -2.1796455650        3.0642460640
 C       -11.3495235267       -0.0716422495        4.4615309554
 C       -11.1137494640        0.9988683905        3.2439800667
 O       -12.0682316043        1.2491086009        2.5503270874
 C        -9.7524278431        1.6815819323        2.9763035557
 C        -9.8866988872        2.9445647001        2.0126183594
 C        -8.6086628388        3.7657970935        1.4803774168
 O        -8.1666829341        3.9668457693        0.3749747090
 C        -7.7013440728        4.4343793248        2.5591185953
 C        -7.4669759854        5.9726633703        1.9206067770
 O        -6.6268901546        6.0691335458        1.0652179589
 C        -8.2554112441        7.1957177756        2.2790162958
 C        -8.9750193798        7.9742985150        1.2091890940
 C        -7.9191560636        9.0157274383        0.7123581714
 O        -7.6752334556        9.8214107012        1.6063992631
 C        -7.3136473136        9.2336354302       -0.7014178336
 C        -7.9549228172        8.3085494561       -1.7889553392
 O        -7.4070314838        7.3014524771       -2.2413678828
 C        -9.2843431605        8.9670001991       -2.2982747192
 C       -10.0287561681        8.0963903591       -3.4274861796
 C        -9.9964616824        6.6235609141       -2.8129731511
 O       -10.2178552270        6.5656141606       -1.6181908442
 C        -9.8260781784        5.4233142739       -3.8766532512
 C        -8.5247837060        4.6801137601       -3.3465972812
 O        -8.6041779401        4.0928602067       -2.3074020122
 C        -7.1781307317        4.8404201355       -4.2189528143
 C        -6.5485828962        3.4684074638       -4.2983367832
 C        -5.4716929359        3.1053348834       -3.2399184291
 O        -5.2172707487        3.8540942788       -2.2643092303
 C        -4.5742258874        1.9313717968       -3.5405790447
 C        -3.7946624081        2.0891999992       -4.8047746707
 O        -4.3891409281        2.6302937335       -5.7373489977
 C        -2.3797834109        1.5737779139       -5.0281773668
 C        -3.6008608980        1.6929589792       -2.2896990484
 C        -5.4411862820        0.6661881432       -3.7537482703
 C       -11.1182357106        4.4705533861       -3.6736476739
 C        -9.7723595215        5.8374964989       -5.3385961152
 C        -7.2549583173       10.8160474233       -1.0133517914
 C        -5.7297742233        8.9095644643       -0.3753484108
 C        -8.1702845729        4.4959767531        3.9901059642
 C        -6.3298209527        3.6710418294        2.5336162409
 C       -12.0964348462        0.6169553472        5.6422913066
 C       -10.0255743214       -0.4052716487        4.9507993113
 C       -16.7110451296       -1.6152863540        4.9268147527
 C       -18.2621170127       -2.2999728368        3.1490191811
 H       -18.6348065830        0.2054169678        1.3784607363
 H       -17.0807595840        0.9377791151        1.6752168782
 H       -18.6960871177        1.6637642917        2.2166327490
 H       -14.2233811835       -2.8801396281        2.2936476896
 H       -14.7642562560       -2.7897059469        3.8509321861
 H       -14.0415881582       -0.3148803998        3.9408410683
 H       -13.4402810942       -0.3204750407        2.4672292070
 H        -8.9847174147        1.0505659063        2.5492878332
 H        -9.4670298225        2.0834734047        3.9368301692
 H       -10.4239492516        3.8928305118        2.4515071208
 H       -10.6255358705        2.6486672453        1.1010190296
 H        -7.4786957587        7.7227252541        2.9663419881
 H        -8.9278504374        6.6910392191        3.0793532074
 H        -9.8531212175        8.5078818979        1.5781231680
 H        -9.3232865916        7.2860419438        0.3840605891
 H        -9.3066244491       10.0427774384       -2.6820161702
 H       -10.0394665752        8.9460305873       -1.4300438898
 H        -9.5351263787        8.2506097256       -4.4354683169
 H       -11.0050271483        8.4658116495       -3.2707275688
 H        -6.5558789817        5.5379871658       -3.6555277698
 H        -7.3532165653        5.1307404919       -5.2000626121
 H        -6.0109297938        3.4945352816       -5.2021344849
 H        -7.1425822336        2.5878303093       -4.4444631461
 H        -2.5197483290        0.5097508327       -5.0585751432
 H        -1.8548186290        1.7325096928       -4.0535945558
 H        -1.8034391235        2.0206388114       -5.8871313012
 H        -2.5481632782        1.6459898602       -2.6150805110
 H        -3.8804499865        0.7961963090       -1.6619007150
 H        -3.8311693736        2.6494136963       -1.7680231453
 H        -4.9010969871       -0.2279737835       -3.5811598262
 H        -5.8996946041        0.5919587344       -4.7128955846
 H        -6.1451205718        0.7492074085       -3.0435806946
 H       -11.1897182209        4.3738774640       -2.5887402159
 H       -11.1106967096        3.5275376356       -4.1765232305
 H       -11.9136009634        5.1492907457       -3.8965427848
 H       -10.8097603163        6.1148603229       -5.6555587158
 H        -9.4713835483        5.1758224878       -6.0965852188
 H        -9.2279897510        6.7518607238       -5.6030528824
 H        -7.8574045762       11.3714283479       -0.2864856394
 H        -7.4431729419       11.0716291724       -1.9996013345
 H        -6.2603387321       11.2234015059       -0.6038874595
 H        -5.5701315195        9.4785337762        0.5768259740
 H        -5.1067731981        9.1576739350       -1.2705097938
 H        -5.4529038834        7.8578052429        0.0311000782
 H        -8.1959149720        3.5683040234        4.6565992786
 H        -9.1157019335        5.1054402876        4.0385698927
 H        -7.4453288245        5.0299176387        4.6625101091
 H        -6.6173630719        2.6750408226        2.1624265307
 H        -5.8830737074        3.5386629917        3.5724088877
 H        -5.6990048186        4.2349749645        1.8586924194
 H       -12.4623563586       -0.2975966963        6.1632371477
 H       -12.9151973799        1.3008095736        5.4369780507
 H       -11.3515009092        1.2068194657        6.3213913501
 H        -9.2995519259       -1.0640819770        4.5153777491
 H       -10.2210201251       -0.7371064756        5.9507712996
 H        -9.4780576496        0.5014411042        5.1778044647
 H       -17.3734712436       -1.2240723346        5.7685825379
 H       -15.8497508687       -1.1371420200        5.3349481316
 H       -16.5324279070       -2.6431642486        5.1143644052
 H       -18.3085673123       -2.2219186376        2.0322489513
 H       -19.1653215103       -1.8653459564        3.6933530551
 H       -18.0779436123       -3.3359105198        3.5170871840
 Na       -6.6104135223        5.1678136039       -1.1706946077
