117

 C       -17.9075105632        0.8463940509        2.2714435880
 C       -17.9471631293        0.1602307413        3.6011631221
 O       -18.2815854809        0.6325356117        4.6293973613
 C       -17.0890637009       -1.2973588766        3.5238163288
 C       -15.9053444045       -1.3868810795        2.5573960607
 O       -16.1505427674       -1.1804782531        1.4000294184
 C       -14.3008184047       -1.8387744977        2.8287931403
 C       -13.6409507338       -0.8162356556        3.7742539090
 C       -12.1843451823       -0.9765532843        3.7355466207
 O       -11.7286448615       -1.9867663412        3.4140095334
 C       -11.3335128406        0.1583293960        4.3699837212
 C       -10.9611388729        1.1511759778        3.2921102270
 O       -11.8996192772        1.6738701212        2.6788330103
 C        -9.5844653724        1.6278702300        2.9017806500
 C        -9.9283024174        3.0089156913        2.1496667393
 C        -8.6680896591        3.7301388274        1.5806102516
 O        -8.4507026574        3.6566637163        0.3852787321
 C        -7.7183560928        4.5616344176        2.5297660627
 C        -7.4278434421        5.9109004559        1.9585825469
 O        -6.7218482242        6.1357637304        0.9487036454
 C        -8.4945191057        7.1446581797        2.3537304736
 C        -8.6993117645        7.9259784716        1.0138882067
 C        -7.7678828972        9.0635950447        0.7981065389
 O        -7.4636579741        9.8327307100        1.6774280274
 C        -7.2058215659        9.2277175746       -0.6912422993
 C        -8.0767434129        8.3833072221       -1.7023484348
 O        -7.6600202735        7.2906926761       -2.1677682359
 C        -9.3452170103        8.9651262449       -2.2938216042
 C        -9.6634347284        8.0999834301       -3.5612046191
 C        -9.9780776706        6.6113942496       -3.0328152205
 O       -10.4286004152        6.3550462435       -1.9197920347
 C        -9.9113741520        5.3409391083       -4.0431756891
 C        -8.5874636151        4.6624413721       -3.4975642595
 O        -8.5884008253        4.3687507730       -2.2886909116
 C        -7.3366692932        4.5147833239       -4.3858653549
 C        -6.7183525198        3.1785127721       -4.0541570659
 C        -5.4251287458        3.2159469548       -3.2508044112
 O        -5.0515313899        4.0648917442       -2.4976976229
 C        -4.5051379796        1.8089700011       -3.4093718682
 C        -3.7454939953        1.8864713809       -4.7847947947
 O        -4.2267813869        2.4835150362       -5.7277003347
 C        -2.3915628069        1.0219373677       -4.9742086776
 C        -3.6451773978        1.5776533621       -2.0574872986
 C        -5.4378689204        0.5197135762       -3.4021985560
 C       -11.1590902309        4.3189578654       -3.8125756754
 C        -9.8176070140        5.8867048149       -5.4848123625
 C        -7.1125380964       10.7384469695       -1.1541329969
 C        -5.8357405167        8.4622464433       -0.6218318911
 C        -8.2524462180        4.7447486661        4.0068906991
 C        -6.2694938404        3.8106345846        2.5924433854
 C       -12.2878216635        0.8856205900        5.3327681881
 C       -10.2124833388       -0.6385804472        5.1105485680
 C       -16.7282220984       -1.6280476487        4.9600399345
 C       -18.2855387881       -2.3041329266        3.1613465512
 H       -18.3194792118        0.2156259054        1.3631452469
 H       -16.8946246023        0.9116304876        1.9678512890
 H       -18.4716591826        1.8211138724        2.3079147694
 H       -13.6944804265       -1.7276401185        1.8625009896
 H       -14.0780805304       -2.8137183209        3.1017107245
 H       -14.1216233693       -0.7838023255        4.7891686688
 H       -14.0090996018        0.1902266185        3.4154357329
 H        -9.2102331721        0.7083393892        2.3834792285
 H        -8.9330675254        1.9552093047        3.7673547966
 H       -10.4257757738        3.6622602807        2.7190206675
 H       -10.5725609893        2.9251990843        1.3609618767
 H        -8.1801257488        7.7668914696        3.1182620835
 H        -9.3741402082        6.6996739001        2.6395876079
 H        -9.5750409154        8.5368608457        1.2420875929
 H        -8.9251806754        7.3896053822        0.1275589457
 H        -9.2091393548        9.9236204058       -2.7082662464
 H       -10.0864675469        9.0321820515       -1.5827901838
 H        -8.7216218944        8.1185504978       -4.0373193263
 H       -10.5938638577        8.4375808890       -4.1103189301
 H        -6.5806919243        5.3736610455       -4.2272794660
 H        -7.8129886240        4.4277527160       -5.3862503720
 H        -6.5029620508        2.4832983959       -4.9631950972
 H        -7.2946821944        2.4599898987       -3.4143097745
 H        -2.6952542142       -0.0602216309       -5.0380406345
 H        -1.5807743477        1.1464287347       -4.2973176983
 H        -2.0446469027        1.3276767078       -5.9478442145
 H        -2.9365899223        0.7414945031       -2.2157319649
 H        -4.3800801052        1.1529171970       -1.4246399521
 H        -3.1792215867        2.5104981579       -1.7669032673
 H        -4.8385656717       -0.4640673163       -3.5136440204
 H        -6.0980260264        0.5541503356       -4.3601416303
 H        -6.1025102946        0.4482363016       -2.4355917348
 H       -11.6002310280        4.4986709030       -2.7888395333
 H       -10.7930617785        3.2387840079       -3.9298683476
 H       -11.9340724101        4.6703480336       -4.5217437208
 H       -10.4641080129        6.7186043037       -5.6189073925
 H       -10.0429186889        5.3213212532       -6.4269263448
 H        -8.8319422596        6.3041604481       -5.7350519659
 H        -7.4445759807       11.4377795358       -0.3544165703
 H        -7.7003255672       10.8381271573       -2.0683286821
 H        -6.1180706921       11.0599607714       -1.3955249387
 H        -5.2743741177        8.7681789816        0.2259332756
 H        -5.3792670699        8.6455787921       -1.5939957560
 H        -5.8946028124        7.4564296886       -0.4277681554
 H        -8.1857516203        3.9048099225        4.5706750070
 H        -9.2325901213        5.0811281262        3.9991777869
 H        -7.6117240743        5.3381340979        4.5994580903
 H        -6.3713460166        2.8516130497        2.1405568968
 H        -5.9993140097        3.6533687842        3.6089907233
 H        -5.5615198038        4.5714822297        2.1482972657
 H       -12.7287235139        0.1545780403        6.0406196221
 H       -13.0904535517        1.3530306556        4.7475113477
 H       -11.7458131454        1.6208306797        5.8374464005
 H       -10.1700457625       -1.5318664683        4.4782137895
 H       -10.5314152456       -0.9958383462        6.0812195467
 H        -9.1597325055       -0.3739349875        5.2621771110
 H       -17.4729959782       -1.3857179409        5.6663914435
 H       -15.7677177613       -1.2584708601        5.4188553502
 H       -16.5466042954       -2.7082765870        5.1222776578
 H       -18.6919652599       -1.9654641788        2.2444805558
 H       -18.9884325559       -2.3357721504        3.9940740971
 H       -17.7699428912       -3.2590553586        3.0241073943
 Na       -6.7631975337        5.3434383130       -1.3153291391
