117

 C       -17.6795976427        0.9710725101        2.4842400305
 C       -17.7056540054        0.1103378320        3.7292644958
 O       -17.9515533643        0.4318791507        4.9098103047
 C       -17.0791400714       -1.2823628815        3.4936814969
 C       -15.8189879981       -1.2144828369        2.5504463377
 O       -16.1801456979       -1.1722964817        1.3618234525
 C       -14.3635719025       -1.2362975621        3.0098009536
 C       -13.6511377828       -0.2131713124        4.0593038338
 C       -12.2150636444       -0.4423997862        4.1438736849
 O       -11.8588270217       -1.6278582032        3.9139768823
 C       -11.3296869177        0.6153818138        4.7874988631
 C       -11.2910000700        1.7570404568        3.5175645806
 O       -12.2605499839        2.1401169022        2.8891727376
 C        -9.8597064985        2.0609963994        3.0053465687
 C        -9.8075866487        3.1905541480        1.8822190887
 C        -8.3011937603        3.6474448097        1.5613837523
 O        -7.6977549557        3.0948620803        0.6027281503
 C        -7.6025221282        4.7316181784        2.5919386675
 C        -7.5642709025        6.1024265961        1.8293364457
 O        -6.7152001004        6.1854250583        1.0045066481
 C        -8.6117016296        7.2043621747        2.1098567755
 C        -8.7687096933        8.0887284706        0.8779844186
 C        -7.4522167671        8.7903825814        0.5113404512
 O        -6.8493092331        9.2665140026        1.4584466085
 C        -7.0309518428        9.0130167128       -1.0121830721
 C        -7.8516385588        8.0191249000       -1.9910102992
 O        -7.5905064290        6.8930463688       -2.2719801714
 C        -9.0125954318        8.7370918483       -2.7805550537
 C        -9.6263641550        7.9613812342       -3.9928243895
 C       -10.4549391680        6.7562918085       -3.5910083451
 O       -11.3380857691        6.8169920779       -2.7750406028
 C        -9.9893699199        5.5025720549       -4.3666742058
 C        -8.6320128605        4.6374830021       -3.6318846113
 O        -8.6822183051        4.5388841704       -2.4474795679
 C        -7.6162031057        3.8192849566       -4.5268372361
 C        -7.0782069763        2.4076436726       -3.9814076946
 C        -5.7888160625        2.6678566844       -3.1170122341
 O        -5.5877356083        3.7741881338       -2.6314266509
 C        -4.6149661012        1.6888052479       -3.0846663070
 C        -3.7600565620        1.3335084529       -4.4561785617
 O        -3.8829628776        2.1038671822       -5.3910245839
 C        -2.9383873115        0.1312757448       -4.4900609107
 C        -3.4767552316        2.1915234081       -1.9657862870
 C        -5.3533405491        0.4217150489       -2.5273756117
 C       -11.1978901665        4.4715376953       -4.3790354037
 C        -9.6833137045        5.8281821012       -5.8152414485
 C        -7.1707851491       10.4841988509       -1.4330838879
 C        -5.5441823549        8.6426776648       -0.9260915267
 C        -8.3487208395        4.9030043397        3.9224756967
 C        -6.0867228919        4.2727395650        2.7723902148
 C       -12.0733961923        1.2295970968        5.9696586917
 C        -9.9609316119        0.0810172190        5.1683125452
 C       -16.9141165158       -1.9416477289        4.9304640088
 C       -18.2268227734       -1.9773798086        2.7733808931
 H       -17.7821723723        0.3453802237        1.6873902487
 H       -16.6256454566        1.4044073325        2.2657396828
 H       -18.4168727468        1.7939145486        2.5948414573
 H       -13.7209930276       -1.1126975756        2.1492381752
 H       -14.1877867613       -2.1161367664        3.6404154536
 H       -14.1662765750       -0.3121308083        5.0425475710
 H       -13.9874829528        0.8479024041        3.7640534809
 H        -9.4826355992        1.0972456056        2.7060556310
 H        -9.2772377888        2.2385217628        3.9591039754
 H       -10.3051491306        4.1085116543        2.2602266759
 H       -10.2934872370        2.9363330426        0.9750897812
 H        -8.2995186991        7.5721382261        2.9926147595
 H        -9.4379953585        6.6134164516        2.1870942613
 H        -9.4780201434        8.8499509036        1.1049851214
 H        -9.1105080720        7.5834156009       -0.0293374012
 H        -8.5771792918        9.5984758540       -3.2459445269
 H        -9.8035263024        9.0861479678       -2.2146810185
 H        -8.8135608691        7.6968020939       -4.6949978265
 H       -10.2653855135        8.5684325488       -4.5651174973
 H        -6.8405869624        4.6609831081       -4.7637598311
 H        -8.1932826932        3.5605948821       -5.4516980314
 H        -6.5923087970        1.9074252862       -4.8398787686
 H        -7.9165271972        1.6694213220       -3.6361732584
 H        -3.0543099301       -0.4269240591       -3.6205593842
 H        -1.9109766901        0.4517440235       -4.7363415946
 H        -3.3058280068       -0.5794708040       -5.2669194580
 H        -3.3921598873        1.5072412865       -1.1145852611
 H        -4.0044952309        3.0636334705       -1.5512080705
 H        -2.5306834414        2.4510862872       -2.4679365490
 H        -4.6829369035       -0.3584539575       -1.9808691880
 H        -5.8843396401       -0.1377512214       -3.3768798289
 H        -6.1484223852        0.7409785917       -1.7117989833
 H       -11.2713322438        4.0978224114       -3.3300291271
 H       -11.1166985383        3.6268083999       -5.1360045014
 H       -12.1447783677        5.0879973919       -4.6234450864
 H       -10.6509082161        6.0735693840       -6.3026814506
 H        -9.2774493137        5.1206630951       -6.5243820566
 H        -9.0732310659        6.7183840442       -6.0121687613
 H        -6.4606544522       11.1125401076       -1.0023879577
 H        -8.0199700287       10.7903984962       -0.8300096409
 H        -7.4984782785       10.6325314327       -2.4690772061
 H        -5.1157060045        9.0422366150       -0.0188292089
 H        -4.9289030349        9.0850809676       -1.6126357572
 H        -5.5006103295        7.5437820242       -0.8719549088
 H        -8.4742828719        3.9310489619        4.3434773599
 H        -9.3006952638        5.3275154256        4.0034730753
 H        -7.6888250811        5.4791187828        4.4974008289
 H        -5.9281384860        3.8180513947        3.7713422058
 H        -5.3649673095        5.1126849717        2.6703345868
 H        -5.9531345492        3.5452884819        2.0081978014
 H       -12.0937781335        0.5928283322        6.8103103626
 H       -13.1351265486        1.3246887649        5.7262879465
 H       -11.6391087891        2.1732369304        6.3123420843
 H        -9.4714961972       -0.5753662813        4.4713106487
 H       -10.0196624497       -0.4070634902        6.1384977903
 H        -9.2434933693        0.8704193029        5.3840285579
 H       -17.9805170023       -2.2822304801        5.1243087822
 H       -16.4954493344       -1.3143488424        5.6860965616
 H       -16.3771340407       -2.8481481619        5.0898952134
 H       -18.1643919660       -1.9100184257        1.6821277775
 H       -19.1498487171       -1.4270678722        2.9830043852
 H       -18.1359038025       -2.9506156150        3.1825887330
 Na       -6.7988318526        4.7042750383       -1.0829434095
