117

 C       -17.7378657174        1.0686850767        2.5800340528
 C       -17.4828882258        0.2114501538        3.8254830168
 O       -17.9099315535        0.4501996956        4.9169019424
 C       -17.1094117022       -1.2855635381        3.4924027542
 C       -15.8252131866       -1.2209831325        2.6234313519
 O       -15.9681318837       -1.1301396710        1.4002979466
 C       -14.4531801522       -1.2839157949        3.0235359495
 C       -13.9117418378       -0.2004332881        3.9837133029
 C       -12.4262634680       -0.5862430019        4.2254263889
 O       -11.8485184451       -1.6277680056        3.9829713667
 C       -11.3094209092        0.7303352347        4.6804104457
 C       -11.2822514440        1.7195557247        3.5088304775
 O       -12.2002089096        2.3815870306        3.1261634525
 C        -9.7065040132        2.3291065397        3.0474076093
 C        -9.7486329981        3.3113969885        1.9411459977
 C        -8.3461250953        3.6503790433        1.6939666617
 O        -7.7260691862        3.0718500677        0.7676854383
 C        -7.5980573751        4.6795320895        2.5372460020
 C        -7.5289023453        6.0324759321        1.6909853703
 O        -6.7479751405        6.2318496410        0.7781331563
 C        -8.6189032750        7.1545428742        2.0385109093
 C        -8.9347326426        8.0900655945        0.9580442826
 C        -7.5540449884        8.7019272783        0.4460854221
 O        -6.7739102240        9.0742238316        1.2349860482
 C        -7.0958958092        8.8564946513       -1.0781187996
 C        -7.7339607817        7.9854572306       -2.1150828481
 O        -7.4385250958        6.7817769789       -2.2945805315
 C        -8.9455385426        8.6239228250       -2.7267992974
 C        -9.4035271988        7.9286248718       -4.0181235319
 C       -10.2663059463        6.7569388225       -3.6373998334
 O       -11.2890103089        6.9389303100       -2.9875325190
 C        -9.9692413493        5.3412543158       -4.3804829696
 C        -8.8172015647        4.4299811847       -3.7007361268
 O        -8.7265349253        4.4453076770       -2.4801897373
 C        -7.7381591178        3.7278749587       -4.5832873946
 C        -7.0124227928        2.5048122369       -4.0517700692
 C        -5.7168376962        2.7470732950       -3.2385673748
 O        -5.7083461041        3.8272679400       -2.5808885818
 C        -4.6850981138        1.6829797239       -2.9458104870
 C        -3.9334104657        1.3256845727       -4.3263331108
 O        -4.0320219856        2.1266333057       -5.1864797432
 C        -3.0939447213       -0.0130888272       -4.3400000607
 C        -3.5534883618        2.1497011936       -2.0725134816
 C        -5.3236994523        0.3422232638       -2.3248941804
 C       -11.2167721886        4.4883080442       -4.4363449914
 C        -9.6364598620        5.6690788150       -5.9386496976
 C        -7.2168791344       10.4576524850       -1.3148618761
 C        -5.4534874707        8.6117720935       -1.1746691684
 C        -8.3600799976        4.8521845691        3.8538403067
 C        -6.1025773953        4.2883780499        2.8174589630
 C       -11.9489923932        1.4131494670        5.9335148842
 C        -9.9429447603        0.3760933512        5.2195982636
 C       -16.8241966207       -2.0041137252        4.8731781913
 C       -18.2696149568       -1.9349863013        2.7019519374
 H       -18.0396977754        0.3471596862        1.8545437542
 H       -16.8756124180        1.5318819534        2.0962639479
 H       -18.4137307658        1.7731209008        2.8617902394
 H       -13.9051149079       -1.0801611231        2.1812894007
 H       -14.1526858507       -2.1994979005        3.7082816303
 H       -14.5494913659       -0.1961742772        4.9211062970
 H       -14.0372492132        0.8109242211        3.5787675687
 H        -8.9827696317        1.5805876667        2.7735883664
 H        -9.3644702900        2.6756280646        3.9532487478
 H       -10.4271603052        4.2836763171        2.2035507035
 H       -10.1390919707        2.8809152405        0.9341200377
 H        -7.9209816596        7.5664800010        2.7815873151
 H        -9.4545099896        6.6397727713        2.5040328643
 H        -9.5475578485        8.9133449860        1.3929546080
 H        -9.4462019617        7.7261482121        0.1057880951
 H        -8.7667003896        9.6613160005       -2.9246590277
 H        -9.7866506257        8.6136900992       -1.9505504044
 H        -8.5893639166        7.6196666148       -4.6134124374
 H        -9.9001294726        8.5518266350       -4.7292713086
 H        -7.1336458944        4.5517256067       -4.6984371627
 H        -8.1508216468        3.3917961261       -5.6359848216
 H        -6.8780085822        1.8200581728       -4.9246024119
 H        -7.5121232866        1.8844551106       -3.2490536474
 H        -2.8105828078       -0.5509627747       -3.4424710558
 H        -2.3022892538        0.3845818577       -4.9479513819
 H        -3.5994083452       -0.7552592904       -4.8913146058
 H        -3.2498148944        1.3947675058       -1.4012084318
 H        -3.9519579786        3.0141754054       -1.5153849486
 H        -2.7057849980        2.4662078697       -2.7554148415
 H        -4.6842106628       -0.5166647821       -2.2689016831
 H        -6.1469942034        0.0974435650       -3.0016837401
 H        -5.7679119834        0.4859608210       -1.2887559386
 H       -11.6326030058        4.3524607990       -3.4843838233
 H       -11.0522179971        3.5325137322       -4.9879539849
 H       -11.8957265660        5.0984775039       -5.0821151775
 H       -10.3023430605        6.5294094201       -6.2879607079
 H        -9.7865882454        4.9736317578       -6.7279514481
 H        -8.6524991236        6.0591745289       -6.0492621040
 H        -6.5818832945       10.9030978992       -0.6069766155
 H        -8.1896331897       10.9847173134       -0.9749167839
 H        -7.1246061163       10.6010102136       -2.3179534271
 H        -4.9720876007        9.1626474092       -0.3949643427
 H        -4.9616784408        9.0452695467       -2.0005970576
 H        -5.2431331559        7.6221600584       -1.1319793564
 H        -8.1100340906        4.0145532407        4.4646602252
 H        -9.4483049116        4.7443247988        3.7567390892
 H        -8.3459286333        5.8712792414        4.2042316316
 H        -6.0408121079        3.6914237693        3.7866781022
 H        -5.5156730557        5.1513424537        2.9508157971
 H        -5.7713056622        3.6324985232        2.0671183753
 H       -12.3474913395        0.5758940816        6.3953280648
 H       -12.9512906795        1.9032896180        5.7124091059
 H       -11.3567179053        1.9555831761        6.6336719803
 H        -9.3584630980       -0.3289657334        4.6306483012
 H       -10.0840053698       -0.1255935182        6.2777658048
 H        -9.2710350521        1.2084296235        5.4393058455
 H       -17.7241175282       -2.0925868536        5.5208120937
 H       -15.9007726161       -1.6778266958        5.3428619937
 H       -16.6202153179       -3.1052063890        4.7157378997
 H       -18.0676019049       -1.7660448375        1.6276910879
 H       -19.1800811901       -1.5153239158        2.8794290594
 H       -18.1629366924       -2.9333208312        2.9763375992
 Na       -6.8123676142        4.8216181602       -0.9411593691
