117

 C       -17.8602960128        1.2772335808        2.7160943763
 C       -17.6677047416        0.1956188806        3.8647622989
 O       -17.7619188465        0.6710783404        4.9553019679
 C       -17.0409599783       -1.3991679134        3.4858101896
 C       -15.7407257691       -1.2260803507        2.4534419351
 O       -15.9445757296       -1.0487272099        1.2780248524
 C       -14.3368174977       -1.5373706824        3.1530779580
 C       -13.7802021282       -0.2007097977        4.0194276125
 C       -12.2323540786       -0.3928692426        4.2597491489
 O       -11.8989920486       -1.5058737462        4.1432996092
 C       -11.3990021902        0.7710727442        4.7056979212
 C       -11.2079256005        1.9715814358        3.6802681282
 O       -12.1440634103        2.5420737665        3.2662240475
 C        -9.8450887656        2.3035842190        3.1228413294
 C        -9.7967751361        3.2297860817        1.9854359833
 C        -8.3431510792        3.6189955595        1.5952064201
 O        -7.6395874010        3.1447953586        0.7721206537
 C        -7.6118388320        4.7581063153        2.5324918467
 C        -7.6162878820        5.9921697207        1.6199382773
 O        -6.8842014844        6.2050156892        0.6490718923
 C        -8.6564432017        7.1962498371        2.0266178614
 C        -8.8434561833        8.0649042525        0.8332669032
 C        -7.3952694559        8.5921550332        0.3439159937
 O        -6.6913010594        8.9376489517        1.2781504898
 C        -6.9840845922        8.8301262631       -1.0807545162
 C        -7.7259086461        8.0200411539       -2.0626517269
 O        -7.3121812623        6.8587653298       -2.3068273218
 C        -8.9677423214        8.5303761052       -2.7711031666
 C        -9.1489199844        7.8295842915       -4.1108637474
 C       -10.1183181487        6.5979294059       -3.8855539294
 O       -11.1076824006        6.8254371873       -3.2326370580
 C       -10.0019365484        5.1822154069       -4.4846737526
 C        -8.8709095350        4.4429586879       -3.7484031565
 O        -8.8739384980        4.2852200672       -2.5292564386
 C        -7.8167367483        3.6993751471       -4.7099514490
 C        -7.1052032463        2.5492733317       -4.0731224798
 C        -5.8467475744        2.8399745808       -3.0762006608
 O        -5.6511348469        3.8922051383       -2.5473187794
 C        -4.7615178386        1.6121287788       -2.8585692981
 C        -4.1357337236        1.2168293818       -4.2289011974
 O        -4.1529411519        2.0888337070       -5.1075091571
 C        -3.3006622389       -0.0122875856       -4.3110820362
 C        -3.5608289869        2.1592053482       -1.9948569834
 C        -5.3752679763        0.3572289616       -2.1585368164
 C       -11.3553347903        4.4139708649       -4.4397742825
 C        -9.5086127546        5.4745086964       -5.9578316794
 C        -7.2342726341       10.3767270667       -1.1880891174
 C        -5.4466393925        8.5402056006       -1.3545621555
 C        -8.1786829194        5.1318069373        4.0003056785
 C        -6.1340168865        4.2881717028        2.8147715361
 C       -12.1188882211        1.7120488291        5.8866977988
 C        -9.9687141737        0.3207602127        5.1582786134
 C       -16.7236522458       -2.1305642652        4.7625739510
 C       -18.2995506249       -1.9879144196        2.7270051328
 H       -18.1895592588        1.0704122540        1.6547788106
 H       -16.8795431110        1.4413639216        2.5982838051
 H       -18.1519524277        2.1839372894        3.2037564133
 H       -13.5646221619       -1.4881574778        2.3610104265
 H       -14.2903623102       -2.2977032952        3.8697192725
 H       -14.3573179750       -0.1052030090        4.9378460878
 H       -14.0492425394        0.6681406105        3.4191339409
 H        -9.4561037936        1.3193692845        2.8062472638
 H        -9.2163604742        2.5564107372        3.9511618028
 H       -10.4441729830        4.0787236401        2.2691067926
 H       -10.2000507125        2.8072430142        0.9643068202
 H        -7.9519073882        7.5860542374        2.8608437877
 H        -9.5973109755        6.6505878939        2.4332369115
 H        -9.3448195720        9.0206847320        1.1427605445
 H        -9.4431443884        7.6471409374        0.0130907926
 H        -8.9700588876        9.6530560612       -2.9854081416
 H        -9.8941069076        8.3740674203       -2.0799290178
 H        -8.2522409478        7.6475901461       -4.6614499443
 H        -9.5634710676        8.5543904053       -4.9001066184
 H        -7.1347916382        4.4400118844       -5.0796150570
 H        -8.2887499928        3.2763729752       -5.5561538158
 H        -6.9167607046        1.8934522833       -4.9423795555
 H        -7.6037837087        1.9436966318       -3.4088880536
 H        -2.6915050663       -0.2232816046       -3.3879618203
 H        -2.7358848781        0.1498401701       -5.1865816328
 H        -3.9191383165       -0.8782527427       -4.3316691598
 H        -2.9310501742        1.3204151971       -1.6108838462
 H        -3.9838017771        2.8100024260       -1.2252836157
 H        -2.9818313915        2.7813799117       -2.7093620702
 H        -4.8350503236       -0.5155443242       -2.2399276340
 H        -6.3847899926        0.1918434454       -2.4525820986
 H        -5.4448627069        0.5580471835       -1.1936526392
 H       -11.7886094270        4.6337354102       -3.4713556386
 H       -11.2690173240        3.3888449478       -4.6167508349
 H       -11.9419437327        4.7828246920       -5.1802502694
 H        -9.6828546845        6.4695922954       -6.2956621753
 H       -10.0589187393        4.8929004655       -6.7114813418
 H        -8.4556741668        5.2824170869       -6.1529129267
 H        -7.0579199576       10.8531163494       -0.1923679821
 H        -8.2331475332       10.6622143950       -1.3304987807
 H        -6.7331135919       10.6881241345       -2.0926872162
 H        -4.7917743973        9.1295397568       -0.7934170729
 H        -5.0853906319        8.8249570505       -2.3868436282
 H        -5.3156429873        7.4606831287       -1.3153314160
 H        -7.8498604287        4.3137918288        4.6655467054
 H        -9.3026938067        4.9340434265        3.9242972778
 H        -8.3419072227        6.2290346047        4.1573353697
 H        -6.1600640076        3.4073240611        3.4285746218
 H        -5.6468381490        5.0672480470        3.3427649568
 H        -5.5963983064        3.8838820882        1.8750317598
 H       -12.8205838798        1.1019777582        6.5617683412
 H       -12.7690293615        2.5043057035        5.5931941454
 H       -11.3167001434        2.1262594964        6.5530978952
 H        -9.4526803662       -0.2093241807        4.2832894303
 H        -9.9204939058       -0.4181408457        5.9350413036
 H        -9.2622857932        1.1230319785        5.4912128114
 H       -17.2521481999       -1.9162150837        5.6374321895
 H       -15.6133442350       -2.2340879882        4.9484265519
 H       -17.0097680829       -3.2279270013        4.6129291357
 H       -18.2218021910       -1.5346245725        1.7981546317
 H       -19.2479564844       -1.6176388510        3.1531760128
 H       -18.2823280898       -3.0887556354        2.6779441408
 Na       -6.8932987427        4.8919849957       -0.8657614765
