117

 C       -17.7261048052        1.3292776281        2.9620205600
 C       -17.1724354146        0.3575327198        3.9747151880
 O       -16.8562576545        0.5928663791        5.1393970948
 C       -17.0050999766       -1.1550900026        3.4673192237
 C       -15.7127728300       -0.9113248904        2.6586376186
 O       -15.8814760070       -0.6644690867        1.4851616271
 C       -14.2954183981       -1.1452366308        3.2566453825
 C       -13.6386045160        0.1822744917        3.6674852726
 C       -12.3376730523       -0.1748293821        4.4253131813
 O       -11.7333360163       -1.2182535371        4.3173267985
 C       -11.6090164547        1.0826179096        5.0500790711
 C       -11.2189366364        2.1245695617        4.0805380536
 O       -12.0614864449        2.8637497726        3.6058404751
 C        -9.8781762791        2.0811147728        3.0967465357
 C        -9.7289147558        3.3245240190        2.2688510657
 C        -8.3173295369        3.7396419582        1.6547589067
 O        -8.0406269453        3.4716045209        0.5410773553
 C        -7.5173482208        4.8094755087        2.6112747371
 C        -7.6968148858        6.1048000676        1.6236523929
 O        -7.0303152748        6.0381975624        0.6202864047
 C        -8.6759135948        7.3456053282        1.7828228244
 C        -8.7264034553        8.4657233145        0.7644209308
 C        -7.2266088281        8.6676208925        0.2620038047
 O        -6.3209834238        8.6056457241        1.0732311157
 C        -6.7893464712        8.9978960653       -1.2631304804
 C        -7.3606711591        7.8963946752       -2.3016030279
 O        -7.2988547264        6.7300927344       -1.9706350042
 C        -8.2873579044        8.3161699053       -3.5647042630
 C        -8.6922870591        7.2235490657       -4.5649309983
 C       -10.0110459344        6.3866601903       -4.2466691371
 O       -10.8984107870        6.7188946549       -3.5160498935
 C        -9.8930444008        4.9573457621       -4.9821420298
 C        -8.9414423083        4.1452848164       -4.0041209475
 O        -9.1938090885        4.2196437731       -2.8230708578
 C        -7.6771269710        3.3048562046       -4.4694410379
 C        -7.1683170619        2.3694178022       -3.4623589437
 C        -5.8863534488        2.8119887990       -2.8007323252
 O        -5.6374941998        3.9569470832       -2.5567657030
 C        -4.9507527506        1.4723199625       -2.4672725530
 C        -4.5736618276        1.0216230310       -3.9277800551
 O        -4.8160297768        1.7502186759       -4.9205076725
 C        -3.9117193963       -0.3010994656       -4.1288130451
 C        -3.6095683405        2.1365601858       -1.7315234669
 C        -5.5285848990        0.3249939021       -1.6299950571
 C       -11.2328948639        4.1283655160       -4.7153264771
 C        -9.5647316525        4.9462005687       -6.4582476800
 C        -7.1347230948       10.4570551446       -1.5965458194
 C        -5.2245576147        8.7623369175       -1.3496026034
 C        -8.2819105849        4.9287805792        4.0023382108
 C        -6.0644069320        4.5172085135        2.8619042282
 C       -12.6089111987        1.7704022430        5.8989771288
 C       -10.2534358442        0.8334832305        5.9050612217
 C       -16.7537783963       -2.2211350586        4.4998688805
 C       -18.1709123396       -1.8825072845        2.5833662235
 H       -18.7639144807        1.1969320853        2.7472577920
 H       -17.1950251168        1.0366312415        2.0956337393
 H       -17.4407648963        2.3299667696        3.1555545985
 H       -13.4882881029       -1.5387643886        2.4358375804
 H       -14.3475241087       -1.7906415435        4.0559637906
 H       -14.3468073257        0.6027611005        4.3789324166
 H       -13.4230254623        0.8226609594        2.7930907702
 H        -9.9857812471        1.2890839704        2.4017409811
 H        -9.0264387998        1.8185347972        3.6739290018
 H       -10.0292462507        4.2422571881        2.9069433379
 H       -10.2884217599        3.1905984088        1.2658822299
 H        -8.6716046492        7.6364543776        2.8989690777
 H        -9.6626792578        6.7233856031        1.6367588710
 H        -9.2070066721        9.3134763706        1.2421503495
 H        -9.3042164554        8.2551209769       -0.1521089062
 H        -7.7841311760        9.1340018294       -4.1297947346
 H        -9.2055105495        8.7910212569       -3.1783426530
 H        -7.9022633667        6.5861697864       -4.7575168723
 H        -8.7314224876        7.5851236652       -5.5961407313
 H        -6.9648366568        4.1181755569       -4.6394998838
 H        -7.8221940140        2.9890382385       -5.3722125923
 H        -7.0131104711        1.2979531329       -3.8469861249
 H        -7.9620298372        2.2250911410       -2.7399140093
 H        -2.9419639726       -0.1851528311       -4.6132000490
 H        -4.5346112132       -0.8498631585       -4.8132847274
 H        -3.7779390686       -0.7751642467       -3.1579580153
 H        -2.8478679912        1.4287153909       -2.1234455142
 H        -3.6367017841        2.1626246308       -0.6457975535
 H        -3.4268115634        3.1503431599       -2.0376530978
 H        -4.6680194408       -0.0549547941       -1.0693269994
 H        -5.9888399797       -0.4439689399       -2.2614857981
 H        -6.3613786890        0.5217225303       -1.0042479174
 H       -11.2126106899        3.8007097346       -3.6074258160
 H       -11.4782209492        3.3496220561       -5.4204217176
 H       -12.0500175507        4.8378114602       -4.7456343222
 H       -10.4599074131        4.9292694260       -6.9857638753
 H        -8.9092940002        4.0863177264       -6.7622941559
 H        -9.0739404873        5.8831026501       -6.7696749145
 H        -6.2688507367       11.0958888219       -1.1725634049
 H        -8.0199124640       10.7314828756       -1.1798349425
 H        -7.1459984193       10.6984591120       -2.7056892089
 H        -4.8248057545        9.1699806446       -0.4888373706
 H        -4.7572114749        9.2404892892       -2.1575669489
 H        -4.8867539531        7.7500722080       -1.4508128142
 H        -8.3805674257        3.9152419825        4.4031539295
 H        -9.1187931977        5.6397805452        3.8915235258
 H        -7.5911652763        5.3903159872        4.7348872719
 H        -5.8821467015        3.5872150735        3.2689259212
 H        -5.7336509310        5.2959001104        3.5303167502
 H        -5.4453137151        4.4650663635        1.9234402488
 H       -12.8331833906        1.1400506779        6.7954068214
 H       -13.4626141037        2.0457860149        5.4307232255
 H       -12.3226310321        2.7067280339        6.3209018101
 H        -9.5279940914        0.0686194766        5.4811723411
 H       -10.4078366833        0.5046279359        6.8645118281
 H        -9.6401475091        1.7618973990        5.9194828453
 H       -17.6014397673       -2.7558818851        4.8518029130
 H       -16.3250058752       -1.8325157468        5.4789572465
 H       -16.1820749769       -2.9865999327        3.9465180528
 H       -18.2516083534       -1.4244878876        1.6636905118
 H       -19.1062161056       -1.8714351515        3.1404155914
 H       -17.9058564095       -2.8723225010        2.3270856764
 Na       -7.6502653747        4.6704446078       -1.3343603909
