117

 C       -17.8536797062        1.3752973182        3.5237053766
 C       -16.9651526413        0.3187676548        4.1868966842
 O       -16.1691249314        0.5107058742        5.0875953237
 C       -16.8307065959       -1.0647678395        3.3715916481
 C       -15.4770050950       -1.0017449058        2.5583947699
 O       -15.5292639846       -0.3671008928        1.5393310277
 C       -13.9936665233       -1.2365298130        3.2357917493
 C       -13.4916821851        0.2751122286        3.5001163838
 C       -12.2322238579        0.1913361548        4.2805394999
 O       -11.6843202614       -0.8328017205        4.3858882795
 C       -11.7410803018        1.4324384803        5.3401109432
 C       -11.4425527040        2.4006100266        4.2394553698
 O       -12.2414375467        3.1479162448        3.8490193278
 C        -9.9313931442        2.3664467436        3.5093348767
 C       -10.0848461660        3.1790085985        2.1833190155
 C        -8.7316550518        3.7008334929        1.6705204613
 O        -8.1043002740        3.0693922247        0.7928419242
 C        -7.9011841747        4.8204226067        2.3933368959
 C        -7.7507103566        6.0868248429        1.4464432986
 O        -7.0870150418        5.9651254554        0.4864226602
 C        -8.2568605600        7.5153449821        1.8022337852
 C        -8.4395677173        8.2885073648        0.5093198938
 C        -7.0488354046        8.6854885689       -0.0267284073
 O        -6.1899109896        9.0732237155        0.7289339848
 C        -6.8678749247        8.8607598227       -1.5264851164
 C        -7.3788258488        7.7942935549       -2.4968760974
 O        -7.3676672267        6.5846167340       -2.1641249321
 C        -8.0597216497        8.2302365394       -3.7406463889
 C        -8.1778458275        7.0200823637       -4.6924551526
 C        -9.5958379765        6.4426125191       -4.4866521811
 O       -10.4594890494        7.0644524143       -3.9357063124
 C        -9.8612212570        4.8800833508       -4.9317631413
 C        -9.1190922506        3.9897767889       -3.8897486761
 O        -9.4712604158        4.1370249133       -2.7449937790
 C        -7.9189405630        3.0269789025       -4.2861645274
 C        -7.4002090234        2.1907870509       -3.1206029110
 C        -6.0732248688        2.5049831597       -2.5027310397
 O        -5.8482257919        3.5189455320       -1.9180382527
 C        -4.9627589491        1.4444715432       -2.4598833877
 C        -4.7013186495        0.6366603012       -3.8470120178
 O        -4.9345805168        1.2754286868       -4.8787814651
 C        -3.8484719400       -0.6271663718       -3.8997483764
 C        -3.5971934042        1.9413679480       -1.9452699885
 C        -5.5356841746        0.4402201931       -1.4947274642
 C       -11.3575144383        4.7136378581       -5.0483643370
 C        -9.3172118376        4.6182620415       -6.3987135085
 C        -7.5630118214       10.2923625467       -1.7173429245
 C        -5.3497612388        8.9364454609       -1.9065722485
 C        -8.4224483181        5.3372300878        3.7467597277
 C        -6.4031767674        4.2310631527        2.4525017548
 C       -12.9220884402        2.0224110574        6.2439013648
 C       -10.5402439688        0.9741086996        6.1899433186
 C       -16.8190268307       -2.1603297763        4.4740295476
 C       -17.9908231055       -1.3924668364        2.4800034031
 H       -18.6949768487        1.7526772610        4.1980319841
 H       -18.2419369460        1.0735699529        2.5794407119
 H       -17.1527594229        2.2388937472        3.3014626704
 H       -13.3189953920       -1.7656179962        2.4224002835
 H       -14.0290949799       -1.8538371535        4.0730896423
 H       -14.3846086576        0.7063843536        3.9682225105
 H       -13.0711244321        0.6518372231        2.5632083958
 H        -9.7522885374        1.2678126129        3.3357732038
 H        -9.0811929434        2.8267594102        3.9789866961
 H       -10.7611409287        4.0565354592        2.3334879279
 H       -10.4965746508        2.5402752297        1.3021234668
 H        -7.6456270224        7.8993117100        2.5654407194
 H        -9.1984075351        7.4231269028        2.2107922332
 H        -9.2644048403        9.0056858420        0.6629003140
 H        -8.8394493555        7.5842360872       -0.1784216411
 H        -7.5954990084        9.0716272840       -4.1483477927
 H        -9.0964187619        8.5187075257       -3.5794433317
 H        -7.3610509994        6.3135894297       -4.6137720201
 H        -8.1131852597        7.2201635822       -5.8046348566
 H        -7.0506389574        3.6895298681       -4.5705324359
 H        -7.9980626328        2.5233123667       -5.2239033063
 H        -7.2247272409        1.1322375573       -3.6543936981
 H        -8.1866441695        2.1099639056       -2.3472882490
 H        -3.7265989649       -0.9676564892       -4.9731129975
 H        -4.3263970429       -1.3757573678       -3.2817931657
 H        -2.9252514023       -0.3549969226       -3.3660114112
 H        -2.9552268788        1.2730806729       -1.3113589328
 H        -3.9998476775        2.8209243748       -1.4297132199
 H        -3.0681653968        2.4986427262       -2.7312244516
 H        -4.9317708073       -0.5193470515       -1.2357418380
 H        -6.5884699616        0.0435470013       -1.7848620859
 H        -5.6443936640        1.0500610226       -0.5630307498
 H       -11.8530067414        4.7294842380       -3.9991926162
 H       -11.5585543525        3.6653044083       -5.3273366335
 H       -11.8385290752        5.5010791409       -5.5916155610
 H        -9.7194821609        5.3359455403       -7.0825322767
 H        -9.6293559208        3.5686897447       -6.6185166796
 H        -8.2067594174        4.6191331958       -6.4117700414
 H        -7.2535750047       10.9921779019       -0.8915040047
 H        -8.5781424093       10.2300170608       -1.9363869996
 H        -6.9660027715       10.8568838458       -2.4294867516
 H        -4.7796801840        9.7097102278       -1.4076928564
 H        -5.1853972405        8.8549406825       -3.0412765289
 H        -4.7766708707        8.0249771404       -1.5158485601
 H        -8.2047407483        4.7002435083        4.5369930239
 H        -9.4498679356        5.4257725227        3.5035914267
 H        -7.9498676094        6.2525264081        4.0779655213
 H        -6.3156868626        3.6539653557        3.3697234107
 H        -5.6219283021        5.0065433138        2.5016189953
 H        -6.0847885825        3.4534232962        1.6254957850
 H       -13.7268118182        1.2504371116        6.3888766252
 H       -13.2343318687        2.9842895606        5.9722397071
 H       -12.7020312788        2.1428363963        7.2980417861
 H        -9.6111548449        0.9969661135        5.5642365873
 H       -10.6060866760        0.0648214413        6.6822779731
 H       -10.3200123164        1.7138762071        6.9545055937
 H       -17.7500532412       -2.0118563835        4.9434918780
 H       -16.1049025560       -1.9098333396        5.2972973562
 H       -16.8112192221       -3.2200888353        4.0918611628
 H       -17.8198599321       -0.9053940101        1.5371428153
 H       -19.0600072754       -1.3329392906        2.9147486657
 H       -17.9647170033       -2.5057594983        2.2091553664
 Na       -7.5296974067        4.4851083842       -1.0851823264
