117

 C       -17.7933057421        1.4952556050        3.8657470277
 C       -16.8184084630        0.4206978789        4.1142283738
 O       -16.0883843263        0.6450318822        5.1155465346
 C       -16.8066751905       -1.1024896688        3.4610550218
 C       -15.4499830817       -0.8341456894        2.5656488756
 O       -15.4362234898       -0.4276984074        1.3927729480
 C       -14.0925202233       -1.0306088982        3.2526718247
 C       -13.5024871601        0.3689390907        3.5271253706
 C       -12.2894501037        0.1783465797        4.4913423471
 O       -11.5175416137       -0.8104127022        4.4476799691
 C       -11.8276856119        1.4422173557        5.3682700332
 C       -11.5114288451        2.4940679484        4.3184449150
 O       -12.3255049239        3.3541262347        3.9383836386
 C       -10.1005641484        2.5712985159        3.6116586806
 C       -10.0543088981        3.2529635142        2.3085775409
 C        -8.6474404188        3.5944976237        1.6554902449
 O        -8.3528823802        3.0656333891        0.6216855723
 C        -7.8936412717        4.8083968290        2.4025773130
 C        -7.7418253912        6.0685180114        1.4539555046
 O        -7.0748496181        5.9542712064        0.4140017389
 C        -8.2160133292        7.5238779652        1.6654755584
 C        -8.3975242195        8.2715707876        0.3722515118
 C        -6.9543947496        8.7103863892       -0.1283428254
 O        -6.1565846428        9.1469724580        0.7320406397
 C        -6.7963060783        8.9242797944       -1.6885353367
 C        -7.4748257272        7.7252884145       -2.4954607489
 O        -7.4143484524        6.5826142556       -2.1753038349
 C        -7.9529627156        8.1421266609       -3.9238570595
 C        -8.1570544173        6.9938884661       -4.9276288676
 C        -9.4991759783        6.4311312113       -4.6525347240
 O       -10.3878752118        7.0933297066       -4.0980627444
 C        -9.7531625937        4.8839301476       -4.9754656703
 C        -9.0399497687        4.1201140564       -3.7514193057
 O        -9.5228231906        4.0574715647       -2.6337550126
 C        -8.0039316190        3.0662341048       -4.1627361156
 C        -7.4640309005        2.0326629005       -3.1357880490
 C        -6.0823365659        2.3739746255       -2.4155103683
 O        -5.8416990722        3.4265954993       -1.8163324420
 C        -5.0337271579        1.3601570039       -2.3947040402
 C        -4.6714964064        0.6062790425       -3.8713774871
 O        -5.0084486886        1.0736058536       -4.9376228047
 C        -3.8555909537       -0.6794883684       -3.8478880764
 C        -3.6747347028        1.9292823836       -2.0612419418
 C        -5.5102680994        0.2462497296       -1.3284943839
 C       -11.3084006615        4.7875853090       -4.9950582152
 C        -9.1441492575        4.5208302068       -6.3368976036
 C        -7.6668696881       10.2890200113       -1.8152762513
 C        -5.3083014157        9.0835763120       -2.0557487344
 C        -8.4938227605        5.1344510900        3.7468191822
 C        -6.4286671742        4.3000161876        2.6507948664
 C       -13.0421759103        1.8597389546        6.1545649327
 C       -10.5420072729        1.1014136260        6.2047433278
 C       -16.8742901339       -2.3175342826        4.5358773650
 C       -17.8023447411       -1.4122660946        2.3066223567
 H       -18.3455750264        1.6910243557        4.6613960785
 H       -18.3365539394        1.3312995124        2.9045132277
 H       -17.1531243194        2.3375271367        3.6950760892
 H       -13.5195219822       -1.5610310059        2.4249851793
 H       -14.1654439221       -1.7147506142        4.0701765039
 H       -14.3084922213        0.7456340035        4.1539373627
 H       -13.2133255437        0.8667314498        2.5841987628
 H        -9.7469546634        1.6030661099        3.4924410056
 H        -9.4326204928        3.1277926789        4.2009802984
 H       -10.7258223532        4.2825491220        2.1607168422
 H       -10.4436171453        2.5132987296        1.5458217225
 H        -7.4343206101        8.0349318818        2.2538981482
 H        -9.1525514636        7.5995572199        2.3019562960
 H        -8.9217360008        9.1590556812        0.6562003535
 H        -9.0626107611        7.7897481823       -0.3544302204
 H        -7.2115573999        8.8159920360       -4.3361210335
 H        -8.8588298936        8.6522423523       -3.9575607028
 H        -7.4101854128        6.2807157709       -4.8885948168
 H        -8.1749666416        7.2885151026       -5.9889949535
 H        -7.1341615087        3.4171615118       -4.6978323788
 H        -8.4681249047        2.6159701939       -4.9400217560
 H        -7.4378236223        1.0710963375       -3.7300932744
 H        -8.1970856916        2.0181714318       -2.2482822453
 H        -4.0684557229       -1.2490420676       -4.7153745077
 H        -4.1457248519       -1.1643782043       -2.8871418114
 H        -2.7908932287       -0.4236392913       -3.6769411677
 H        -2.9862623824        1.1899426100       -1.4906725614
 H        -3.8613862651        2.8521539583       -1.5225652599
 H        -3.2370121637        2.2951277775       -2.9643533468
 H        -5.0708333240       -0.7985999741       -1.3373604905
 H        -6.6188342568        0.0545400333       -1.3200349610
 H        -5.2082821312        0.7803113230       -0.2999476584
 H       -11.6398238534        5.2652232975       -4.0421426587
 H       -11.6888318879        3.7479494028       -4.8095863170
 H       -11.8261623960        5.4348991088       -5.7901764040
 H        -9.1433603066        5.3927918560       -6.9462839675
 H        -9.8018630482        3.7347067688       -6.7669754872
 H        -8.1361751616        4.0603345638       -6.2455781301
 H        -7.4740977679       10.9567144510       -1.0023842402
 H        -8.6710712416        9.9986744336       -1.9055736903
 H        -7.3131966190       10.9862981640       -2.5945996802
 H        -4.8342946888        9.9297359699       -1.6351375173
 H        -5.1230695890        8.9093496745       -3.0681480766
 H        -4.7239969503        8.3064892415       -1.5240530111
 H        -8.4521373434        4.2998040813        4.4089248002
 H        -9.5183567012        5.3241605774        3.5526963244
 H        -7.9470153080        5.8301711977        4.2329937780
 H        -6.3757072559        3.4891961811        3.3265635956
 H        -5.8062857482        5.1160074389        3.0907143572
 H        -5.9140870984        4.0192422264        1.7301908647
 H       -13.7497424023        1.0700738384        6.2134572800
 H       -13.4528110853        2.7994468618        5.9657189323
 H       -12.8529266896        1.8974888343        7.1927617985
 H        -9.6428383162        1.1280435458        5.5839048494
 H       -10.5923248193        0.2503678317        6.8226111423
 H       -10.3780234559        1.8677699573        6.9461306465
 H       -17.5431036841       -1.9912025216        5.3502840337
 H       -15.8766416530       -2.5040244820        5.0605408465
 H       -17.3141914527       -3.2118825804        4.0505325543
 H       -17.6970949169       -0.5547254429        1.6306642433
 H       -18.8153306564       -1.5847222883        2.6634543812
 H       -17.6152840458       -2.2711141205        1.7537253296
 Na       -7.6311821814        4.4071729414       -1.0527387576
