117

 C       -17.8732038419        1.3561417822        4.5991881610
 C       -16.6892354714        0.3792231305        4.3723625632
 O       -15.8224320118        0.4296126910        5.2604951294
 C       -16.6437788607       -0.7001102733        3.3188765776
 C       -15.2163855796       -0.7016879265        2.4968841009
 O       -15.2047006503       -0.7077711579        1.2747511098
 C       -13.9985324753       -0.8715277895        3.4254518603
 C       -13.1348404650        0.4750437891        3.4747699017
 C       -11.9226040295        0.4332726516        4.5663654501
 O       -11.1757154905       -0.5601600748        4.6800582381
 C       -11.9970420960        1.6542972358        5.5966240289
 C       -11.6807140322        2.8160385964        4.6406846463
 O       -12.4332539421        3.8074417126        4.5208317605
 C       -10.4370192276        2.7728423668        3.7634555754
 C       -10.3190854958        3.7958935721        2.7105390762
 C        -9.0430634695        4.1241121052        1.9010656072
 O        -8.8096810007        3.5369201513        0.8787904121
 C        -7.9812259538        5.0859642982        2.4914923657
 C        -7.6390918252        6.0663642400        1.4191247267
 O        -6.9192434741        5.6176126204        0.4702391883
 C        -8.2892478047        7.4931680584        1.3709643244
 C        -8.4197850310        8.1361808743        0.0145835611
 C        -7.0219690946        8.6169505571       -0.5895855552
 O        -6.0635942728        8.5553958273        0.1134438538
 C        -6.8921757707        9.1791222885       -2.0499431816
 C        -7.2938497107        7.9121354420       -2.9337189037
 O        -7.8098007461        6.9687011030       -2.4305438122
 C        -7.0804925380        7.9759869432       -4.4462744468
 C        -7.6131161675        6.5416072669       -5.1288395027
 C        -9.0664284895        6.2292112539       -4.8154647463
 O        -9.9305246699        7.0744455968       -4.6215276276
 C        -9.4927490798        4.6554281059       -4.9972205019
 C        -8.8871787988        3.8350038994       -3.8369545371
 O        -9.3180435922        4.0846142097       -2.7017166165
 C        -7.8859327661        2.7963160294       -4.0397342556
 C        -7.6316576180        1.8146029470       -2.8545802800
 C        -6.2388994280        2.0057114762       -2.2098346397
 O        -5.8484763818        3.1084927290       -1.7548250387
 C        -5.0968828540        0.8814785931       -2.3769574846
 C        -5.1346845358        0.1235563277       -3.6800570752
 O        -5.9794837076        0.3533249941       -4.4853810716
 C        -4.0125946861       -0.9093779470       -4.0234296558
 C        -3.7863981906        1.6156248800       -2.0173725554
 C        -5.2473147540       -0.2183709774       -1.2139931467
 C       -11.0290361640        4.5284831786       -4.8401113295
 C        -9.0424295980        4.1525724227       -6.4411641375
 C        -7.9074826388       10.3348450253       -2.1509799014
 C        -5.4930704217        9.6237450403       -2.3669500199
 C        -8.3459717577        5.6913366932        3.8988679376
 C        -7.0105362961        4.0374934231        2.8752767313
 C       -13.3276041961        2.0678025877        6.3726626091
 C       -10.7836595114        1.4580744636        6.6239677277
 C       -16.8793892536       -2.1595007515        3.8796523543
 C       -17.8387052778       -0.6761157033        2.3105084831
 H       -18.1408418257        1.3854425657        5.6509021472
 H       -18.6111364384        1.2764483727        3.8077259936
 H       -17.3677796520        2.2951322417        4.4458737789
 H       -13.4594786268       -1.7019337538        3.0365091614
 H       -14.4393022357       -1.2503528729        4.4307117515
 H       -13.8060587225        1.3340110257        3.6204872209
 H       -12.6037187547        0.4317024710        2.5170900500
 H       -10.2823489883        1.8561122428        3.3104836900
 H        -9.7700354807        2.9850035251        4.6201683057
 H       -10.8428018412        4.7700007368        3.2464977952
 H       -11.1657589963        3.6956787672        1.9618819667
 H        -7.4995618895        8.0990329926        1.7552558226
 H        -9.1230200916        7.5631737189        2.0939634217
 H        -8.9541370268        9.0517963615        0.1274688261
 H        -9.0311160602        7.5183588174       -0.6616394136
 H        -6.0580069442        8.1080941077       -4.7560480332
 H        -7.6029097389        8.7332928818       -4.9063562899
 H        -7.0343651960        5.7390171035       -4.7130950301
 H        -7.4663000548        6.6242366644       -6.2256456839
 H        -6.9947433248        3.1342327800       -4.5481921094
 H        -8.2830256651        2.1117689151       -4.7697553883
 H        -7.6909282487        0.8532390565       -3.3654754592
 H        -8.4618258835        2.1536804994       -2.1055084208
 H        -4.2581056490       -1.8962286947       -3.7572326342
 H        -3.0848214089       -0.4201230893       -3.6368426429
 H        -3.7675479999       -0.8884384976       -5.0930956321
 H        -3.0221401005        0.8444982663       -2.2411324776
 H        -3.6547450569        1.5858170795       -0.9212215638
 H        -3.5733960573        2.5117044801       -2.6240263040
 H        -4.2016635276       -0.6979142679       -1.1172546888
 H        -5.9770357298       -1.0596345167       -1.5545754220
 H        -5.3938440440        0.2930118538       -0.2073601476
 H       -11.3301771123        4.6358633016       -3.8277893508
 H       -11.3749611102        3.4917869955       -5.0626497876
 H       -11.6384328451        5.2656430141       -5.4699265725
 H        -9.9304556996        4.2733113955       -7.0500795899
 H        -8.8723540425        3.0816488943       -6.4172145558
 H        -8.1758653581        4.7293579799       -6.7638094718
 H        -7.8039753284       10.9321999498       -1.2847404371
 H        -8.9676014965        9.9431638063       -2.0969726503
 H        -7.7756662702       10.9582333167       -3.0737148054
 H        -5.0069828864       10.2270675471       -1.4985550349
 H        -5.5350662353       10.2733509809       -3.2683520029
 H        -4.6828366854        8.8623928191       -2.4184122895
 H        -8.8027475574        4.8558491711        4.3577439088
 H        -9.1027831179        6.4026066245        3.9945530964
 H        -7.4597618267        5.9072837272        4.3454828206
 H        -7.4535961849        3.2702991122        3.5374030378
 H        -6.0893135991        4.3830375212        3.4599510506
 H        -6.5342645932        3.7242707874        2.0046341537
 H       -13.2923924948        1.7311893045        7.3856693780
 H       -14.3178169578        1.6782461267        6.0044336706
 H       -13.4033868895        3.1834893415        6.4813349886
 H       -10.0785973777        0.7249425783        6.2970877368
 H       -11.1593234185        1.2818697531        7.6555673167
 H       -10.2673472703        2.3925890296        6.8126883506
 H       -15.9138068134       -2.6011247215        4.2489931069
 H       -17.3143505767       -2.6767359488        3.0389931835
 H       -17.5798677946       -2.2085992210        4.6796940085
 H       -17.5208257112        0.1979559027        1.5873890679
 H       -18.8864541764       -0.4511430878        2.5625393903
 H       -17.7968538382       -1.5784302414        1.6690981415
 Na       -7.6442288517        4.6353035787       -1.2293973607
