117

 C       -17.8541120333        1.3107604019        4.6274651674
 C       -16.6359206420        0.2941298607        4.5270200878
 O       -15.6681378248        0.2440033392        5.2165565146
 C       -16.6993868006       -0.6730614408        3.2396548454
 C       -15.2723171418       -0.6812762414        2.7047816687
 O       -15.2271049429       -0.6930143395        1.5258369328
 C       -13.9868720866       -0.7565716002        3.4648665382
 C       -13.0738507556        0.4629363343        3.5494970131
 C       -12.0584657424        0.3208737741        4.6760643497
 O       -11.1853672784       -0.3987083712        4.7234010986
 C       -11.9890999190        1.7100662345        5.6010442007
 C       -11.6728708102        3.0094034251        4.6981116746
 O       -12.3909103679        3.9464658334        4.5629213824
 C       -10.3342280040        2.9400115376        3.8054604901
 C       -10.5077470920        4.0712275723        2.7739214022
 C        -9.2590847590        4.2059343739        1.9200157390
 O        -9.0929096783        3.6831010135        0.8620277432
 C        -8.0817013893        5.0231700116        2.5812043466
 C        -7.6039336812        6.1136023744        1.4347859373
 O        -6.8551809823        5.8262040523        0.5165838290
 C        -8.2158756123        7.5339331225        1.3878916829
 C        -8.3573830350        8.0640050741       -0.0483809437
 C        -7.0219160549        8.4573182804       -0.5709042175
 O        -6.0065228507        8.3953676551        0.0409251885
 C        -6.9598274060        9.0903713656       -2.0933484553
 C        -7.4012092378        7.8982856349       -3.0270874624
 O        -7.8065026045        6.8686720513       -2.4710285844
 C        -7.0539497592        7.9215192706       -4.4519580978
 C        -7.4022906689        6.5005226066       -5.0822886717
 C        -8.9144957461        6.0133182264       -4.8404717853
 O        -9.7118853593        6.8789268173       -4.7384381631
 C        -9.5154959448        4.5511461266       -5.0017527240
 C        -8.8647651576        3.7193693045       -3.8746423668
 O        -9.1874153796        4.1007930241       -2.7522587531
 C        -7.8168627422        2.6101173011       -4.1516220596
 C        -7.6474356135        1.8382900864       -2.7629867204
 C        -6.2071042918        2.0144605567       -2.2535668292
 O        -5.9826649087        3.0499517756       -1.6250179496
 C        -5.1006382826        0.9313945727       -2.2635829823
 C        -5.2128159518        0.1975452158       -3.7561172583
 O        -6.2284877582        0.1379021256       -4.4016014237
 C        -4.1104133352       -0.9040289111       -4.0569510811
 C        -3.7315428297        1.5390830260       -2.0272741036
 C        -5.3780853297       -0.2986270998       -1.2928880261
 C       -11.0165894703        4.6988313069       -4.9455509501
 C        -9.0838502814        4.0162421960       -6.4720631760
 C        -8.0328090790       10.2779346021       -2.2241832715
 C        -5.5390636572        9.6568418979       -2.5672910989
 C        -8.3937901195        5.8497192346        3.9173425370
 C        -6.9067779955        4.0248658368        2.9298857931
 C       -13.2821742776        2.0172022740        6.3144396580
 C       -10.8762113060        1.4611641096        6.5611421412
 C       -16.8560436296       -2.0872268167        3.8879839317
 C       -17.6923385572       -0.4089585256        1.9920169918
 H       -18.1670051931        1.2007977288        5.7162406407
 H       -18.5215047526        1.1040824450        3.9070064563
 H       -17.5694690889        2.2853538915        4.5288667619
 H       -13.5982754578       -1.5513762486        2.9268665275
 H       -14.0529349812       -1.1411034600        4.5287112714
 H       -13.7846190403        1.2222281480        3.9485761779
 H       -12.5152664157        0.7887867658        2.6586137856
 H       -10.2936210723        2.0449285424        3.2036752147
 H        -9.4972634843        2.9738855235        4.4617824976
 H       -10.9127670516        4.9028263487        3.3244308784
 H       -11.4753941202        3.8833584096        2.1553178488
 H        -7.5855923173        8.3161664607        1.9944523162
 H        -9.2351970786        7.4660942527        1.9069335734
 H        -9.1096651163        8.8071041058       -0.0787866941
 H        -8.6986709921        7.2234934365       -0.6460182774
 H        -6.0376646209        8.1856107036       -4.6727143463
 H        -7.6899799012        8.5501419427       -5.0175573089
 H        -6.6752104573        5.7963787614       -4.7284132724
 H        -7.3436958186        6.7185423979       -6.0789036158
 H        -6.9148337224        3.0536155318       -4.3578687383
 H        -7.9969346295        1.8295877283       -4.9753324321
 H        -7.9674835357        0.8024864860       -2.8935906920
 H        -8.2134330430        2.5550594767       -2.0667536434
 H        -4.3883080566       -1.6431481409       -3.2755214856
 H        -3.1143448225       -0.4910449818       -3.9831232094
 H        -4.1593246577       -1.4112793801       -5.0093208236
 H        -3.0384380501        0.7650311857       -2.0654980350
 H        -3.5461113916        1.8839777853       -0.9889940119
 H        -3.5092203620        2.2271962505       -2.8882399083
 H        -4.3825473738       -0.8286028763       -0.9965506307
 H        -6.1070248297       -1.0178735359       -1.8291897196
 H        -5.7636426520        0.0931730835       -0.3305300596
 H       -11.4902411359        4.7219450029       -3.9193173183
 H       -11.4636635581        3.7260199124       -5.3835540541
 H       -11.3645521919        5.5593104246       -5.5372805024
 H        -9.7808299622        4.4354623695       -7.2695508209
 H        -9.2824333617        2.9678663435       -6.4700219190
 H        -8.0485643981        4.2716795254       -6.5897467540
 H        -7.9815707671       10.8200532016       -1.3044331997
 H        -9.1099637877        9.9493550579       -2.2247477237
 H        -7.8632120355       10.8519902301       -3.0767539300
 H        -5.1786818287       10.3874585739       -1.8134688153
 H        -5.6520760548       10.2307732536       -3.4926335009
 H        -4.7152880472        9.0033173348       -2.5895278454
 H        -8.9754043377        5.2675079746        4.5299310028
 H        -9.0066344197        6.6745128696        3.7748514935
 H        -7.4682098929        6.1469602693        4.4005736809
 H        -7.1380200701        3.4732250410        3.8612547764
 H        -5.9414376899        4.3817390056        3.0843353166
 H        -6.7057622832        3.4071831265        2.0843375234
 H       -13.3750480287        1.8167438338        7.3417905412
 H       -13.9883152985        1.3440912442        5.8529193581
 H       -13.5965167478        3.0129300669        6.1606028923
 H       -10.1860081248        0.7711894910        6.1740645136
 H       -11.2969017931        1.0618762721        7.5321850123
 H       -10.4278685860        2.3753333694        6.9033727536
 H       -15.8108085700       -2.5302249520        3.9147744795
 H       -17.5984059028       -2.6419605455        3.3765855393
 H       -17.1468085927       -2.0193945135        4.9589537570
 H       -17.4945998463        0.5670799369        1.7066807348
 H       -18.7580717668       -0.3737379363        2.1957883789
 H       -17.5256862861       -1.0677390676        1.1515075615
 Na       -7.4458864402        4.6838112485       -1.1905040253
