117

 C       -17.8312258746        1.1177868867        4.8190892523
 C       -16.5476649271        0.2126707211        4.6757422476
 O       -15.7905879675        0.0593365765        5.6147030963
 C       -16.5705561695       -0.5459816612        3.3268072359
 C       -15.0378202218       -0.5816767913        2.6813482245
 O       -14.8561385324       -0.5856486199        1.5185402571
 C       -13.8377161691       -0.8586366464        3.6060683988
 C       -13.2315129022        0.5521673439        3.8054466799
 C       -12.0617468225        0.6182312994        4.6756219553
 O       -11.2753746164       -0.2830743333        4.6450202170
 C       -11.9923628854        1.9727879395        5.6545951479
 C       -11.8747384932        3.2515254787        4.8019934522
 O       -12.4922232788        4.2612862471        5.0271657906
 C       -10.5680197394        3.3916435268        3.8643753051
 C       -10.6335087802        4.3325322562        2.7695772373
 C        -9.3132308058        4.7197702348        1.9206697401
 O        -9.3561967832        4.6941121918        0.7168078386
 C        -8.0347344224        5.3796490406        2.7004653117
 C        -7.4965363397        6.3544460507        1.5539952470
 O        -6.5786202591        6.0143609959        0.7902562788
 C        -8.1521283531        7.8063217234        1.4253677425
 C        -8.2493071212        8.4232041970        0.0346302341
 C        -7.0235261375        8.3979030295       -0.7284819308
 O        -5.8931195500        8.3286219911       -0.3086097759
 C        -7.0920096854        8.6733645369       -2.2845963577
 C        -7.1409018957        7.3827798513       -3.1024056183
 O        -7.4960030110        6.3861829027       -2.5505822417
 C        -6.6475445534        7.4963926207       -4.5594753475
 C        -7.1665386048        6.1408417624       -5.3329597011
 C        -8.7204483053        5.8635627734       -5.2436129069
 O        -9.5045628683        6.7627849097       -5.1246722411
 C        -9.2480474521        4.4148983105       -5.2324341913
 C        -8.8001417915        3.7002810586       -3.9157978997
 O        -8.9404599961        4.3388987375       -2.8980108211
 C        -8.1574028091        2.4022056723       -3.9821601303
 C        -7.8508774400        1.8622519699       -2.5875510900
 C        -6.3143762695        1.9065509021       -2.1362789978
 O        -6.0196496829        2.9385147880       -1.4986197521
 C        -5.3285555628        0.6167802583       -2.2715251345
 C        -5.4837530768       -0.2517511250       -3.7787308291
 O        -6.4921043082       -0.1035288565       -4.4291806100
 C        -4.2066886268       -0.8169038919       -4.2787594205
 C        -3.8919259016        0.9879803344       -2.1828379420
 C        -5.6742574259       -0.2603669998       -1.0605203928
 C       -10.7814800468        4.3969071064       -5.0167611800
 C        -8.8055392022        3.6789223400       -6.5505519281
 C        -8.4109243774        9.5061092117       -2.5926231224
 C        -5.8136731915        9.5456410761       -2.6666924522
 C        -8.3693442298        5.9882836574        4.0727489536
 C        -7.0984228238        4.0676296242        2.8479434885
 C       -13.2920382439        2.0412872299        6.5100528405
 C       -10.7529735550        1.7397446057        6.5420890603
 C       -17.0332773774       -1.9910644424        3.4737065877
 C       -17.4657169751        0.0310878232        2.0975838320
 H       -18.0449475392        1.4281232649        5.9641138916
 H       -18.6299388773        0.7972448076        4.2030966592
 H       -17.4219367249        1.9723313847        4.2790304713
 H       -13.1388841439       -1.5588797179        3.3209825178
 H       -14.2512388984       -1.2524993598        4.6797826227
 H       -13.8922133532        1.3322694911        4.2039575737
 H       -12.9152900017        0.9421108862        2.8086220241
 H       -10.1336686040        2.5033635165        3.4485062560
 H        -9.7828211646        3.7566282986        4.5934093674
 H       -11.2751403546        5.2591221648        3.0724979656
 H       -11.2832995503        3.8065703234        1.8459907607
 H        -7.4530238241        8.3388318249        1.9993473202
 H        -9.1056613715        7.9825558607        1.8374759115
 H        -8.6351056340        9.3917971892        0.2961925573
 H        -9.0843310919        7.8469394401       -0.4366347092
 H        -5.5327469685        7.4961185425       -4.6426094780
 H        -7.0403509482        8.3733243235       -5.0128597195
 H        -6.5374292198        5.3920497965       -4.7872586546
 H        -7.0668662779        6.2323488398       -6.4476192941
 H        -7.2210347048        2.4908717700       -4.4278202615
 H        -8.7967258210        1.6740201506       -4.4980823087
 H        -8.2658060043        0.8780326931       -2.4537458915
 H        -8.3776969444        2.6834581089       -1.9514230958
 H        -3.3498465046       -0.8477863545       -3.6453667356
 H        -4.1733535366       -0.1251789391       -5.1578086618
 H        -4.4311587788       -1.8186859080       -4.6215338851
 H        -3.2086190101        0.2630260393       -1.7528773975
 H        -3.8773386978        1.8311695626       -1.3868614564
 H        -3.4484563180        1.4124167819       -3.1824221543
 H        -5.4008494683       -1.3403001231       -1.1005235568
 H        -6.7655621711       -0.1200085608       -0.9471171285
 H        -5.3777560217        0.2087839501       -0.1894256699
 H       -11.0840788534        5.1021779748       -4.3135096127
 H       -11.1997622923        3.4523428022       -4.7432070245
 H       -11.2776430633        4.6488982049       -5.9367403586
 H        -8.1273692742        4.4161164126       -7.0334415151
 H        -9.6556216543        3.4937994607       -7.1605346181
 H        -8.1353290483        2.8519782325       -6.4234764461
 H        -8.4574176914       10.3869962032       -2.0254677608
 H        -9.3384250038        8.9247583818       -2.1634465163
 H        -8.6316143179        9.5132492695       -3.6594125824
 H        -5.8958455387       10.6058807012       -2.2146618936
 H        -5.9276948944        9.8956235524       -3.7456912422
 H        -4.8692423791        9.0059312073       -2.5689012792
 H        -8.0521699228        5.2642516940        4.8242789079
 H        -9.4264539524        6.2067620816        4.2710191007
 H        -7.7732063283        6.9469942064        4.2086209782
 H        -7.4797336440        3.3083554952        3.6479965442
 H        -6.0630697113        4.2917319104        3.2441686029
 H        -6.8001224739        3.5385595170        1.9599404292
 H       -13.1337300602        2.4494670987        7.5304572250
 H       -13.7572866900        0.9932157968        6.7274210146
 H       -13.9807852688        2.7810365269        5.9638482686
 H        -9.9075227344        2.2126640086        6.1221525768
 H       -10.3676868871        0.6280971852        6.4446332233
 H       -10.9243115818        2.0947497066        7.5743305605
 H       -17.0733964020       -2.4341508676        2.4231103352
 H       -18.0163144208       -1.7944241045        3.7485078364
 H       -16.5825067962       -2.5999906334        4.2090694110
 H       -17.3042648009        1.0947758491        1.7372499721
 H       -18.6003052706        0.0797383910        2.1040031446
 H       -17.2229387125       -0.6682249738        1.2104712946
 Na       -7.5772197545        4.6550896930       -0.8918975972
