117

 C       -17.8116645535        1.1475106270        4.9205975603
 C       -16.6788553450        0.1692139545        4.6204602649
 O       -15.8700564653       -0.0843381549        5.4586758714
 C       -16.5589888733       -0.4894181513        3.2783980566
 C       -15.1103665132       -0.6925409632        2.7429723712
 O       -14.9754075873       -0.5815638613        1.5251766759
 C       -13.8883450953       -0.7356181804        3.7130350188
 C       -13.3581118764        0.7124371600        3.8414671104
 C       -12.0426244678        0.7173095568        4.7503389639
 O       -11.1738845734       -0.0191476674        4.7660270033
 C       -11.9418348615        1.9513639670        5.7116030425
 C       -11.7749746133        3.3499582659        4.8610740201
 O       -12.5083364721        4.2489143161        5.0537610243
 C       -10.5562574963        3.4807859596        3.8941378182
 C       -10.7306247449        4.3959027087        2.6622625999
 C        -9.4533469758        4.9046301480        1.9924975874
 O        -9.4186459397        4.9102787235        0.8027938078
 C        -8.0380199908        5.3388758985        2.6997141605
 C        -7.4141803091        6.4848889257        1.6583816227
 O        -6.6564756818        6.0628538306        0.8175863543
 C        -7.9686882966        7.9383850696        1.6292336722
 C        -8.3282025148        8.4436427219        0.0979224570
 C        -6.9407491093        8.4987594716       -0.7606500117
 O        -5.8861491368        8.2850554066       -0.2216994839
 C        -7.1122651405        8.7426154324       -2.4195872028
 C        -6.9352336899        7.2794189990       -3.1274702596
 O        -7.2529506172        6.2213414734       -2.5232918877
 C        -6.5506183020        7.1422247768       -4.5739997527
 C        -7.1558182072        6.0687643213       -5.4434478312
 C        -8.7251714058        5.9105727582       -5.3584724676
 O        -9.4974496434        6.8245313066       -5.3168828857
 C        -9.2178203888        4.3835084368       -5.3016135858
 C        -8.7136185993        3.7298666526       -3.8924363959
 O        -8.8878833919        4.3625035953       -2.8636386076
 C        -8.1775069526        2.2746678435       -3.9086996000
 C        -7.8917424072        1.6638758884       -2.4301540373
 C        -6.4072781978        1.8208567474       -2.1218957354
 O        -5.9795824851        2.8182500802       -1.5929227377
 C        -5.4872663364        0.6104018495       -2.2790277304
 C        -5.5629188184       -0.1220045348       -3.6999891321
 O        -6.6299901551       -0.1846527262       -4.3216938175
 C        -4.3174773159       -0.8758731373       -4.3853210526
 C        -3.9258696242        1.0385333011       -2.0472369567
 C        -5.7418827875       -0.3508481037       -1.0997610730
 C       -10.7837390377        4.2745855187       -5.1699725051
 C        -8.6908729851        3.6173273003       -6.5990685211
 C        -8.4552933781        9.2469512350       -2.9149186690
 C        -5.9668036419        9.6309137176       -2.8165809606
 C        -8.2698814449        6.0359152740        4.0109394598
 C        -7.1981973646        4.0606630398        2.8716257647
 C       -13.2527326385        2.0372529187        6.5555924146
 C       -10.6012986430        1.7966533152        6.5095060114
 C       -16.9657717684       -2.0145961287        3.3651965704
 C       -17.1899846867        0.2243928032        2.1519339154
 H       -17.6555980520        1.5116629171        5.8859444027
 H       -18.7561157371        0.5619339855        4.8342548187
 H       -17.7980058334        1.8893380851        4.1682026224
 H       -12.9829179224       -1.1089435535        3.1563715211
 H       -13.9464656332       -1.2542519448        4.5824297881
 H       -13.9057512137        1.5840860149        4.1875666463
 H       -13.1482172778        0.9067026812        2.8029611668
 H       -10.1460691662        2.5535717841        3.5425820770
 H        -9.7221370082        3.8657405980        4.4458336152
 H       -11.3709436562        5.2992598633        2.8836188949
 H       -11.3063540305        3.8509324630        1.7822499826
 H        -7.2925346644        8.6910770752        2.1842901882
 H        -8.9546094947        7.9798230158        2.1271951241
 H        -8.7844786883        9.4002903462        0.2456388079
 H        -9.1241680123        7.7729115610       -0.1704064548
 H        -5.5167117357        7.0180746481       -4.7305666283
 H        -6.8332072938        8.0447369710       -5.0390849518
 H        -6.6387251819        5.1678099940       -5.1430381549
 H        -6.9580493376        6.3730087164       -6.4189820196
 H        -7.2721199281        2.1374174013       -4.3551986413
 H        -9.0050465516        1.6418546042       -4.2715263494
 H        -8.0193801700        0.5267050186       -2.4987579225
 H        -8.6180157580        2.1983134975       -1.6920488553
 H        -3.3720472079       -0.9513801233       -3.7664387746
 H        -4.1976217921       -0.2842367042       -5.2488799999
 H        -4.6503849756       -1.8837323723       -4.6377726738
 H        -3.3006494243        0.1292051913       -1.8982212070
 H        -3.7568547425        1.6835917104       -1.1461076923
 H        -3.5291586103        1.5202313166       -3.0083089453
 H        -5.4522734834       -1.4265657856       -1.3510778176
 H        -6.8081785708       -0.2988677279       -0.7105124787
 H        -5.2217356982        0.1093658872       -0.1542298309
 H       -11.3162859597        5.0664149956       -4.5526860924
 H       -11.1802311385        3.2831446410       -4.8810092816
 H       -11.1811689880        4.3550736444       -6.1429856376
 H        -7.8057645570        4.2361364116       -6.8704063651
 H        -9.4312453170        3.5872205434       -7.3858681478
 H        -8.2345077075        2.6534084048       -6.4467864844
 H        -8.8768061739       10.1721321587       -2.4282092062
 H        -9.2233097363        8.5086875413       -2.7651623196
 H        -8.3949175435        9.2681582313       -3.9858202304
 H        -5.8997839692       10.6311092183       -2.3904351727
 H        -6.0618745767        9.9220932704       -3.9337300594
 H        -5.0802379878        8.9531542049       -2.7910266592
 H        -8.0043830827        5.4242745994        4.7933626999
 H        -9.2457024398        6.4297152102        4.1347097084
 H        -7.6408019597        6.8907936915        4.0938139523
 H        -7.7666789938        3.1574058841        3.1846871357
 H        -6.5057078210        4.1745583712        3.6701259030
 H        -6.4781452050        3.7386928629        2.0325131793
 H       -13.2547138331        2.8837321294        7.3051438385
 H       -13.5066255431        1.1661880367        7.1386876686
 H       -14.0039663078        2.3323468594        5.7949253117
 H        -9.8188855682        2.4592065331        6.1783925210
 H       -10.0752411044        0.8279005909        6.4613883568
 H       -10.9231304148        2.1105765779        7.5087226964
 H       -17.3264106331       -2.3415282874        2.3886289491
 H       -17.6772027488       -2.1944919645        4.1470683333
 H       -16.0385843022       -2.5483576322        3.6683797112
 H       -16.8259767471        1.1974130830        1.8450676433
 H       -18.2625046132        0.5313183377        2.4493208721
 H       -17.3499677127       -0.4089940226        1.2387415286
 Na       -7.6736945141        4.6257554332       -0.7812643687
