117

 C       -17.8344812006        1.1830581903        4.9977210068
 C       -16.7357312205        0.0938194066        4.6362443074
 O       -15.9068721704       -0.1923110146        5.5254164363
 C       -16.5890193003       -0.4964135776        3.1389324255
 C       -15.0285859827       -0.5422017742        2.6760576914
 O       -14.7724010641       -0.6863956460        1.4835202913
 C       -13.8117267932       -0.6575555991        3.6293569600
 C       -13.2457185393        0.7564724239        3.8392097442
 C       -12.0194081164        0.9375897866        4.8111146129
 O       -11.1551593080        0.0168599184        4.6381633146
 C       -11.8596541850        2.1572400167        5.7446658571
 C       -11.6764972882        3.4331365084        4.9097739996
 O       -12.5931199570        4.3031848640        4.9949882302
 C       -10.4672191998        3.4836582712        3.9956507676
 C       -10.7482526749        4.4985947836        2.7441563572
 C        -9.5505096820        5.0324051714        1.9489986804
 O        -9.5143231839        5.0288458604        0.6956191468
 C        -8.1627565592        5.4606998155        2.7204538821
 C        -7.5193667586        6.4121731357        1.6174738786
 O        -6.6889698303        6.0334037459        0.8306790175
 C        -7.8038385689        7.9079506978        1.7172974070
 C        -8.2179439396        8.3234074926        0.1912158254
 C        -7.0257300504        8.4670864893       -0.7872145674
 O        -5.9103944754        8.4095054544       -0.3523370192
 C        -7.1016632623        8.5291038314       -2.4929484797
 C        -6.8705501884        7.1599981902       -3.0503345142
 O        -6.9362334559        6.1135662358       -2.4006410108
 C        -6.5043190966        7.0709426028       -4.6268951370
 C        -7.1843467889        5.9696446298       -5.4869995954
 C        -8.7064423248        5.8456841431       -5.3114058402
 O        -9.4257410355        6.8276682042       -5.4857320388
 C        -9.1297167880        4.3039531402       -5.2945582600
 C        -8.6793695248        3.6865637900       -3.8882896475
 O        -8.8659963527        4.3593566616       -2.8820431321
 C        -8.2556865548        2.1950609844       -3.8748799688
 C        -7.9016396428        1.5200927130       -2.4246395323
 C        -6.4103474204        1.7341226017       -2.0677095025
 O        -6.0888861711        2.8137904030       -1.6447745721
 C        -5.4415784448        0.5372948708       -2.2862572034
 C        -5.6593184424       -0.0969437474       -3.6449636780
 O        -6.7644868848       -0.1730330522       -4.0979119363
 C        -4.5070474815       -0.8674323810       -4.3658906016
 C        -3.9797585497        1.1727666484       -2.0057881550
 C        -5.8609932152       -0.5526161737       -1.2209523645
 C       -10.6742724534        4.2018425292       -5.3822565408
 C        -8.6237104343        3.5845240017       -6.4929644432
 C        -8.4662557234        8.9706813077       -3.0629269723
 C        -6.0594836607        9.6858098407       -2.9266843444
 C        -8.2892735292        6.1871181756        4.1588801451
 C        -7.3296216841        4.2545034538        2.7632309884
 C       -13.0547798414        2.1416063359        6.6715117870
 C       -10.5869418756        1.9351975478        6.6518065855
 C       -17.0725984324       -2.1175833346        3.3404955894
 C       -17.3406674983        0.4299671205        2.1327132480
 H       -17.5191913787        1.7122751021        5.8307115276
 H       -18.5787289811        0.4596173140        5.3698871132
 H       -18.2187662817        1.8404624575        4.2426296569
 H       -13.0911719467       -1.4624018308        3.2881747720
 H       -14.1394494594       -0.8448945172        4.6173294929
 H       -13.9840106777        1.3238689999        4.4605159879
 H       -13.1942354833        1.3396100510        2.9238832228
 H       -10.1702732325        2.4596225692        3.6915999510
 H        -9.5380201974        3.7585919594        4.4709641723
 H       -11.0747565800        5.4459218329        3.1763959389
 H       -11.4497002588        4.1850025919        2.1454109075
 H        -6.8097695638        8.4640131109        1.9406831578
 H        -8.6242119616        8.2752600952        2.4530514224
 H        -8.7360507498        9.2942097729        0.2353211199
 H        -8.9745700179        7.6115079661       -0.0330934062
 H        -5.4906743275        6.7922566616       -4.6952478671
 H        -6.5817984762        8.0066212550       -5.1908299766
 H        -6.7450865421        5.1112997285       -5.1098747303
 H        -6.9616945227        6.1136341013       -6.5149986338
 H        -7.2962467561        1.9261515840       -4.4755127516
 H        -9.1517132434        1.6925387245       -4.1040821856
 H        -8.0867882616        0.3813603423       -2.4682433903
 H        -8.5599264920        2.0186120894       -1.7290667295
 H        -3.7546329059       -0.8604609886       -3.5753554965
 H        -4.1124939149       -0.4138159825       -5.2590384671
 H        -4.8549285586       -1.9100378022       -4.4591362647
 H        -3.1658581568        0.3872456847       -2.0227523627
 H        -3.9356846035        1.6792607510       -1.0575482093
 H        -3.7119033468        1.8562786411       -2.7737042621
 H        -5.3601933551       -1.4902132822       -1.5621392427
 H        -6.9826630059       -0.7228645716       -1.1659693523
 H        -5.6587008860       -0.2114263388       -0.1301811640
 H       -11.1579583123        4.9409213834       -4.6890337900
 H       -11.1253146368        3.2069298656       -5.1709697971
 H       -11.1049866214        4.4075555657       -6.4194948198
 H        -7.5801509890        3.6698560122       -6.6513367286
 H        -9.2476483871        3.9333426642       -7.3623583075
 H        -8.8438958979        2.4909254934       -6.3822380622
 H        -8.7914894486        9.9070846161       -2.5563201448
 H        -9.2606234337        8.3162088402       -3.0873112006
 H        -8.2255759550        9.1755852900       -4.1131767157
 H        -6.3218206363       10.5976933962       -2.4745525722
 H        -6.1391335991        9.9195344066       -3.9682916286
 H        -5.0215850769        9.3263947006       -2.8134116344
 H        -8.2452364050        5.4108005879        4.9121570233
 H        -9.0701214523        6.9037424923        4.2839404367
 H        -7.4573264833        6.7372872241        4.3952131096
 H        -7.8180194527        3.3435681442        2.6415889700
 H        -6.7250153355        4.1395536428        3.6585253152
 H        -6.5711478419        4.2388276777        1.9482536809
 H       -13.0747949066        3.0570082107        7.2595519138
 H       -12.8699218010        1.4162819763        7.4010982469
 H       -13.9629414886        1.9983322893        6.1569872258
 H        -9.6143184876        2.4324795223        6.3683015224
 H       -10.2918443193        0.9632059044        6.5875424040
 H       -10.8937431555        2.2130782580        7.6395928067
 H       -17.5909219275       -2.5120309745        2.5137500189
 H       -17.6337612911       -2.2941475292        4.3197934617
 H       -16.0836397997       -2.5912339344        3.5313091271
 H       -16.8997354816        1.4123095544        2.1100775495
 H       -18.3071732589        0.6889822110        2.5537513101
 H       -17.5108147366        0.2199483085        1.1334237605
 Na       -7.6814088970        4.5759646137       -0.7637620192
