117

 C       -17.7524454298        0.9960625971        5.0690584131
 C       -16.5780393513        0.1055719152        4.7225958685
 O       -15.9666744965       -0.4890559796        5.5460869065
 C       -16.4734477172       -0.3751508048        3.1548280340
 C       -14.9708590271       -0.3531842689        2.6777674965
 O       -14.8469969900       -0.7227368324        1.5299633555
 C       -13.6972159335       -0.3301237056        3.6735495731
 C       -13.2289701486        1.0719598880        4.0499367353
 C       -11.9985826394        1.0589757957        4.7803385110
 O       -11.0921865673        0.3700179256        4.5712269435
 C       -11.7048703221        2.2915085311        5.8565807770
 C       -11.6300974912        3.5353784397        4.9095473563
 O       -12.5547739188        4.2518667293        4.8713204152
 C       -10.4765630334        3.7028276011        3.9019854313
 C       -10.7926390188        4.9220455830        3.1350722385
 C        -9.6407141785        5.2345099839        2.0294524864
 O        -9.7333158303        5.0158801647        0.8661301578
 C        -8.2621242401        5.5608489880        2.6577750361
 C        -7.4932939629        6.4462178977        1.4862485160
 O        -6.7780205240        5.9455074185        0.6210375001
 C        -7.6072484572        7.9677075863        1.4159297081
 C        -8.1304429598        8.3101909865       -0.0034234161
 C        -6.9456114553        8.4404225741       -0.9741581262
 O        -5.8444488941        8.6686655608       -0.5146789240
 C        -7.1740009318        8.4063947934       -2.5413117807
 C        -6.6355685656        6.9262501392       -3.1437361146
 O        -6.2126823647        5.9965853200       -2.4027832839
 C        -6.4614651553        6.9977289862       -4.5861744993
 C        -6.9614997980        5.7102625401       -5.2151010700
 C        -8.4256337277        5.5960034674       -5.3240440224
 O        -9.1637305086        6.4916227962       -5.5757144198
 C        -9.1279945370        4.1245735836       -5.2805831294
 C        -8.7456169222        3.5617917747       -3.9193736765
 O        -8.8460108315        4.3245981955       -2.9618851464
 C        -8.4601471985        2.0623062946       -3.7466816528
 C        -8.2443245530        1.6224847165       -2.3170164512
 C        -6.7739013928        1.7327343406       -1.9752923761
 O        -6.2679928180        2.7550459710       -1.5345092378
 C        -5.7219067523        0.5567577977       -2.2583058549
 C        -5.8534385266       -0.0086938969       -3.6681235298
 O        -6.9796649466       -0.3210122080       -4.0881368596
 C        -4.6022260401       -0.8730462359       -4.2780942680
 C        -4.3251866678        1.0952067148       -1.9201970194
 C        -5.8156016770       -0.6590565707       -1.2009232335
 C       -10.6435714291        4.2682065119       -5.4481517900
 C        -8.3782483138        3.3053881251       -6.4760566168
 C        -8.7058536532        8.4489633013       -2.8002757814
 C        -6.3295154499        9.4997567924       -3.0088808789
 C        -8.4621119710        6.4180470349        3.9854446405
 C        -7.4836947708        4.2179582485        2.9717146200
 C       -12.8735806350        2.4641566207        6.8589956333
 C       -10.3944712245        2.0945685009        6.5728121360
 C       -17.0986842357       -1.8789582928        3.1124733376
 C       -17.3763527685        0.4803429487        2.1222374258
 H       -17.3925529159        1.9211514844        5.5386815720
 H       -18.4810044781        0.4796257355        5.7730409508
 H       -18.0489448965        1.3858929832        4.0492349120
 H       -12.9553953638       -1.0523838804        3.2461801064
 H       -14.0073256866       -0.6208443374        4.6732779945
 H       -13.9491790402        1.7818498096        4.4285536505
 H       -12.8435114630        1.6797447254        3.1576839715
 H       -10.1239522891        2.8399877052        3.3543147898
 H        -9.4790269460        3.8865859283        4.3871936675
 H       -10.7794115779        5.7854512401        3.8249283353
 H       -11.8634250208        4.7364577616        2.5620079357
 H        -6.6874754364        8.4715156113        1.3515622051
 H        -8.1767008310        8.3169372788        2.1786418114
 H        -8.8876063906        9.1127546658       -0.1388401507
 H        -8.6715172415        7.3222523340       -0.2214768990
 H        -5.3182662107        7.1423084489       -4.7875625933
 H        -6.9319226308        7.8097426926       -5.1469668895
 H        -6.5272460433        4.7882300678       -4.6358630055
 H        -6.4562135411        5.7187792627       -6.2400428779
 H        -7.6184589572        1.7428260898       -4.1494424028
 H        -9.3738635421        1.4412352505       -4.0142688922
 H        -8.6247702594        0.6476222370       -2.1262475184
 H        -8.9073280413        2.2485676355       -1.6551836417
 H        -3.8775762533       -1.2048747783       -3.4995525318
 H        -4.0165618670       -0.2124796847       -4.9469368661
 H        -5.0689128833       -1.6911994706       -4.7954548663
 H        -3.6677244831        0.3523316534       -2.2984778704
 H        -4.0726713291        1.3622854187       -0.8565608447
 H        -3.9711229627        2.0456798567       -2.4695002502
 H        -4.8842979093       -1.0697141218       -1.2559421500
 H        -6.5151269254       -1.3508669751       -1.4044874191
 H        -6.0723005261       -0.3780960124       -0.2272237498
 H       -11.2595738733        4.5356908697       -4.6016980092
 H       -10.9847555344        3.3151311657       -5.8192300210
 H       -10.9101415799        4.8910077394       -6.2183678037
 H        -7.7857819597        2.4304850934       -6.0492625532
 H        -7.7196719823        3.9313551493       -7.0415269654
 H        -9.0579392294        2.8935996272       -7.1777913318
 H        -9.2515584570        9.3526514428       -2.4547300362
 H        -9.1257717548        7.4925243699       -2.3468355544
 H        -8.9597435792        8.4727434056       -3.8605202691
 H        -6.8414108749       10.4015472390       -2.7184948770
 H        -6.0805515325        9.4433727242       -4.0983924128
 H        -5.3723039148        9.3624259512       -2.5819208772
 H        -9.2076887962        5.9528893820        4.6378794152
 H        -8.6333868786        7.5167614337        3.7446535854
 H        -7.6361890992        6.5504269577        4.8101118141
 H        -7.9678848548        3.3066670760        2.5142973144
 H        -7.2313043067        4.0552156469        3.9838198201
 H        -6.6006874150        4.0276064806        2.3602759988
 H       -12.7858776645        3.4338505083        7.3914262422
 H       -12.7373490035        1.6975735576        7.6402918390
 H       -13.7834809754        2.2950530808        6.2487726638
 H        -9.5991504930        1.9172217253        5.9280430501
 H       -10.4703937616        1.0852955943        7.1242148098
 H       -10.2407091009        3.0164260231        7.1634799632
 H       -17.0609861698       -2.2342615274        2.0509225932
 H       -18.1109143876       -1.7383245204        3.3611637709
 H       -16.6766283506       -2.4939650945        3.8849550647
 H       -17.1640443877        1.5442900559        2.1719237088
 H       -18.4110193966        0.1991184510        1.8442149462
 H       -16.9531177531        0.4604647735        1.0711694806
 Na       -7.6292362729        4.5121054646       -0.8916673248
