117

 C       -17.7346813581        1.0488238853        5.1965119062
 C       -16.7532130506       -0.0421209748        4.6511897935
 O       -15.9555835196       -0.5234349622        5.4394611228
 C       -16.5224215787       -0.3550645401        3.1494370968
 C       -15.0390499879       -0.4597322765        2.7681291177
 O       -14.7866108892       -0.6198925860        1.5514261106
 C       -13.8208521037       -0.2321929360        3.6236143342
 C       -13.4155605108        1.2437032941        4.0151563407
 C       -11.8943042066        1.2087303378        4.8393672314
 O       -10.9968085359        0.4737161567        4.5934210371
 C       -11.5884932745        2.3402157868        5.8940824033
 C       -11.6821364429        3.5865292058        4.8685404858
 O       -12.7262107071        4.2918426308        4.9051184260
 C       -10.5953333250        3.8440590865        3.9346294154
 C       -10.7712536846        5.0703129431        2.9835106977
 C        -9.6257092480        5.2604194852        2.0414522836
 O        -9.7379493449        4.9502796017        0.8746542894
 C        -8.2200244478        5.6977605949        2.6399549619
 C        -7.4901332755        6.3436312357        1.5173511998
 O        -6.8462525471        5.8160799878        0.6075114586
 C        -7.6593695365        7.8720420680        1.4653495440
 C        -8.1198323737        8.2737675826        0.0232586396
 C        -6.8741339216        8.4179510466       -0.9453953943
 O        -5.8187043108        8.7300455576       -0.5053072073
 C        -7.1595691348        8.2835446085       -2.4208909395
 C        -6.4378575869        7.0308668389       -3.1428158882
 O        -6.0784444069        6.0621607125       -2.4444403792
 C        -6.4750112869        6.8793722869       -4.7046055093
 C        -6.8352475911        5.4170337335       -5.1746711406
 C        -8.3327166065        5.4786575616       -5.3890543900
 O        -8.9408165169        6.5187717028       -5.5658023847
 C        -9.0345698431        3.9984173886       -5.3707857376
 C        -8.7785943075        3.4827527601       -3.8849225586
 O        -8.8525570588        4.3263664458       -2.9911026634
 C        -8.6295661867        1.9848216884       -3.6294670441
 C        -8.2986866968        1.4976393310       -2.0781170847
 C        -6.8563246477        1.6397548278       -1.8318757090
 O        -6.4375816830        2.6759940422       -1.4127500629
 C        -5.7302821811        0.4420362788       -2.2139297574
 C        -5.9952835676       -0.3297741172       -3.6417102259
 O        -7.0382727663       -0.3054078373       -4.2428105815
 C        -4.6733277522       -0.7911061729       -4.2279109246
 C        -4.3894471553        1.1806299516       -1.9707496542
 C        -6.0238563422       -0.5810823417       -1.0980991352
 C       -10.4429761381        4.1926983426       -5.5244913192
 C        -8.4278277602        3.1993038711       -6.5764962105
 C        -8.6738026898        8.1206180272       -2.7222190366
 C        -6.5381261740        9.5506212713       -3.3418568242
 C        -8.2517574295        6.5679510149        3.9017674816
 C        -7.5477081787        4.4269260326        3.0574498793
 C       -12.8175538545        2.5846274912        6.8912797314
 C       -10.2303470443        2.1017890128        6.4909286284
 C       -16.9070431274       -1.8560969810        3.0622687528
 C       -17.1074373275        0.6449615260        2.2371217369
 H       -17.2058543834        1.8509045030        5.5179528398
 H       -18.3059553743        0.5759122767        6.0695462507
 H       -18.2692763216        1.4960783546        4.3637960596
 H       -13.1282048219       -0.7340153514        2.9088902326
 H       -13.7887634845       -0.6531904651        4.5366577305
 H       -14.1673035475        1.6819163608        4.6988399717
 H       -13.3822558155        2.0042782762        3.2274265769
 H       -10.5330473587        2.9136985626        3.3691223206
 H        -9.6269848968        3.7412370802        4.3642528491
 H       -10.7578194060        6.1197246370        3.6073839517
 H       -11.6471453337        4.8462546465        2.4420030152
 H        -6.8028452770        8.5000072474        1.5737155463
 H        -8.4598388511        8.1314603033        2.1183909564
 H        -8.5784754939        9.2876741597       -0.0473618198
 H        -8.9254072893        7.5655057318       -0.1892271695
 H        -5.4966824903        7.1600358865       -5.0564060448
 H        -7.1293658194        7.5303764875       -5.3085703996
 H        -6.5405262405        4.6574486977       -4.3784120466
 H        -6.2208482195        5.1875777668       -6.0731790639
 H        -7.7522723126        1.5576928285       -4.1167395324
 H        -9.5225323483        1.4294963034       -3.8237926243
 H        -8.6962284340        0.4235513783       -1.8058872511
 H        -8.8970688511        2.0819614993       -1.3161482947
 H        -3.8732453640       -1.3200692804       -3.6625089917
 H        -4.3165301530        0.1892258007       -4.4576540539
 H        -4.9948292998       -1.2878687380       -5.1481718605
 H        -3.4575818433        0.5818231040       -2.3063893561
 H        -4.2232542579        1.6379640349       -0.9590118695
 H        -4.3423832061        2.0971360295       -2.5898376498
 H        -5.1942741268       -1.2183015973       -0.9339074732
 H        -6.9287961159       -1.1456831522       -1.2599547617
 H        -6.2517867806       -0.0538249770       -0.1404461668
 H       -10.9109255161        4.5075186319       -4.6001948503
 H       -11.0158512021        3.4407977140       -5.9300351415
 H       -10.6270418259        5.0114562182       -6.1608661263
 H        -8.1370410283        2.2154631829       -6.2552395633
 H        -7.5999952165        3.6453852275       -7.1235602814
 H        -9.2243323093        3.0503181520       -7.2939539828
 H        -9.1233067823        9.1886164928       -2.4970703836
 H        -9.2013023021        7.3460415047       -2.2410614183
 H        -8.8729354085        8.1634923048       -3.8096648610
 H        -7.0031263248       10.4577115937       -2.9571208497
 H        -6.5986692285        9.3631747964       -4.4622213499
 H        -5.3879635252        9.5004290931       -3.1990093029
 H        -8.7980883633        6.0787232838        4.7104198647
 H        -8.6585046314        7.5475812144        3.5876642068
 H        -7.3798560905        6.8709832050        4.4219645166
 H        -7.9265902141        3.5711171537        2.5212150143
 H        -7.5622861488        4.2760869318        4.1235252630
 H        -6.5062578550        4.1717401872        2.6532304292
 H       -12.5591709895        3.4982945699        7.5687689312
 H       -12.9140988821        1.7171466471        7.5819799242
 H       -13.6947909211        2.6694888146        6.2204630565
 H        -9.5574888673        1.4216758812        5.8464856629
 H       -10.3668907041        1.4904255340        7.3762231660
 H        -9.7493544340        3.1076635331        6.5956814065
 H       -16.2837602778       -2.3436298197        2.4039241541
 H       -17.9208949387       -2.0311749099        2.7603897179
 H       -16.7821564549       -2.1869620917        4.0935910395
 H       -16.6751298272        1.6776157461        2.1214443778
 H       -18.2325245190        0.4362003145        1.9890549688
 H       -16.8013193005        0.3677179528        1.1748287212
 Na       -7.6808272788        4.5816751482       -0.9601714993
