117

 C       -17.5008094953        1.0094075257        5.4120808246
 C       -16.4832789176       -0.0727522087        4.7491386997
 O       -16.0393644214       -0.9345908814        5.4863923049
 C       -16.2571835976       -0.0789736964        3.2264326943
 C       -14.6961303521       -0.0512827750        2.8348139611
 O       -14.3022895633        0.0880034636        1.7446544019
 C       -13.6208594171       -0.2821693660        3.9505591454
 C       -13.4451468475        0.9218036890        4.8273371885
 C       -12.1029583606        1.5705258349        4.8716423393
 O       -11.2098115620        1.1019281289        4.0715437100
 C       -11.7762242940        2.7972906266        5.7689993939
 C       -11.8828375209        4.0145997667        4.7584689091
 O       -12.8005672983        4.7162969758        4.8450364345
 C       -10.5435404841        4.3664028038        3.9955360342
 C       -10.7262053652        5.3608423689        2.7240766893
 C        -9.3322471454        5.3045615954        1.9833873647
 O        -9.2494891502        4.7782260449        0.8431256049
 C        -8.0829406243        5.8562675613        2.5892822571
 C        -7.2261607070        6.7411266263        1.4867053246
 O        -6.4586331732        6.0975803969        0.8574005544
 C        -7.2589725342        8.2432125683        1.2935424066
 C        -8.0226716101        8.4215030207       -0.1601499560
 C        -6.9549761861        8.2917877788       -1.3333288571
 O        -5.7688794842        8.6054030185       -1.2125065484
 C        -7.3879370097        7.8213317371       -2.8642905726
 C        -6.5653646348        6.4616990015       -3.1536197637
 O        -6.3131755487        5.6530409325       -2.3315320902
 C        -5.9515500033        6.2521056718       -4.4894658587
 C        -6.4120592857        4.8629754394       -4.9585893631
 C        -7.8324260046        4.9511372066       -5.4049006721
 O        -8.2187138242        5.9578081995       -5.9476650264
 C        -8.7233593369        3.6667808857       -5.3299355626
 C        -8.8957495654        3.2214490987       -3.7688685871
 O        -8.6663428309        4.1659837348       -3.0330410144
 C        -9.2639525480        1.8041904285       -3.4776440602
 C        -8.8972405490        1.2597620182       -2.1004786527
 C        -7.4032593770        1.5236345116       -1.7690768655
 O        -7.0285494186        2.6482213107       -1.3728746162
 C        -6.2905469164        0.4401430708       -1.9193918258
 C        -6.4215779744       -0.3164201222       -3.2900306746
 O        -7.5051299256       -0.3032564938       -3.8809870219
 C        -5.0933408648       -0.6780055010       -4.0389311453
 C        -4.9114298620        1.2329562124       -1.6535783044
 C        -6.6376293553       -0.8224650282       -0.8943805604
 C       -10.1771256936        4.0245358856       -5.9337004024
 C        -8.0540682434        2.6926903792       -6.3236477116
 C        -8.9419250234        7.5845692337       -2.9183850134
 C        -7.0584479991        8.8525701027       -3.8808914713
 C        -8.3071630537        6.8377942719        3.7396500907
 C        -7.1966067892        4.7155336590        2.9707634973
 C       -12.6497160337        3.0564192145        7.0141956142
 C       -10.3289113892        2.5172434092        6.4161051079
 C       -16.8360568252       -1.5408722557        2.6577482233
 C       -16.8605117023        1.0594889492        2.1980746424
 H       -18.1765677920        1.4568445697        4.6007227604
 H       -16.9804436760        1.7116088079        5.9634898521
 H       -18.1587111442        0.4547088655        5.9815028696
 H       -12.7678692628       -0.4852120457        3.4250541891
 H       -14.0577855296       -1.2809077569        4.3938167001
 H       -13.8055887010        0.7207750381        5.8753525938
 H       -14.0705077188        1.7601510253        4.5678419112
 H        -9.9020679545        3.4665481078        3.8212441965
 H       -10.0257284492        5.0083154616        4.6664523630
 H       -11.0715155626        6.2036577545        3.0250865876
 H       -11.4978599549        4.8403247698        2.1594217593
 H        -6.2640114307        8.6167773499        1.1375555514
 H        -7.7583274256        8.8722960419        2.0540444293
 H        -8.6249088184        9.3467913697       -0.1373187672
 H        -8.7820673723        7.6990070850       -0.3894296274
 H        -4.9093746136        6.4698753422       -4.5256464270
 H        -6.3855946649        6.8373706267       -5.3127124970
 H        -6.0620562402        4.0477144118       -4.3560616196
 H        -5.8181661415        4.6735301678       -5.9040680603
 H        -8.7862308658        1.1341401978       -4.2844492299
 H       -10.2917234729        1.6208276769       -3.6072260586
 H        -9.1658741997        0.2684226711       -1.7273939923
 H        -9.6069750968        1.8599676840       -1.3587831933
 H        -4.4514943865       -1.2536061162       -3.4227407898
 H        -4.4751212066        0.2585373153       -4.1735699071
 H        -5.4137045854       -1.1630545928       -4.9710296745
 H        -4.0172457229        0.6761754262       -1.9687555721
 H        -4.7311422271        1.5509892961       -0.5734349385
 H        -4.7886774986        2.1509799384       -2.3289450949
 H        -5.7068026356       -1.4305104822       -0.8054661850
 H        -7.2750224412       -1.4333937900       -1.4916338862
 H        -6.8422239376       -0.7282919456        0.1702660655
 H       -10.6186334307        4.8429810281       -5.5043085852
 H       -10.8533230059        3.2512345790       -5.6670462561
 H       -10.2448815765        4.2086337579       -6.9906700161
 H        -8.7087314545        2.6065115460       -7.1630783836
 H        -7.9138891488        1.6719970036       -5.9909374189
 H        -7.0836024047        3.0253599952       -6.7163830559
 H        -9.5567813558        8.4078502664       -2.6802844156
 H        -9.1469937923        6.6727751432       -2.2085126366
 H        -9.2264443054        7.3774320234       -3.9927461729
 H        -7.9083189885        9.6673972719       -3.9619796557
 H        -6.9727509173        8.2755537435       -4.8238808932
 H        -6.1607620327        9.3981368390       -3.5605666868
 H        -8.6092970895        6.3695785357        4.6727471728
 H        -9.0514351384        7.5730576863        3.7115780994
 H        -7.3366315263        7.2642443564        4.0474035373
 H        -6.7676500081        4.0871206001        2.1513080728
 H        -7.8467080675        3.9457432820        3.5449136787
 H        -6.3441641268        4.8582008981        3.6174376521
 H       -12.3750389479        4.0438126963        7.3196813573
 H       -12.5459349339        2.0988839107        7.6275769143
 H       -13.7202489592        3.1967756838        6.6592598493
 H        -9.5316798604        2.9503213598        5.7953208948
 H       -10.2504669573        1.4988510029        6.8478075333
 H       -10.2206877480        3.1001280374        7.3669023511
 H       -17.2920433405       -1.3157792549        1.6962895412
 H       -17.4889711624       -2.0969503218        3.3033002827
 H       -15.9966995533       -2.0825769251        2.3913900265
 H       -16.3864044955        2.1027570850        2.4655473702
 H       -17.9191484915        1.2126293954        1.8730541049
 H       -16.6639091891        0.8480208145        1.0748462278
 Na       -7.7339759744        4.7421092713       -0.7186299607
