117

 C       -17.2996511244        1.0318678519        5.3741439250
 C       -16.4438837921       -0.0625679841        4.6551124324
 O       -16.1111546840       -1.0490533611        5.3695618908
 C       -16.0987796385        0.0668348643        3.1847951667
 C       -14.5900856434        0.2117490096        2.9622217875
 O       -14.1931125876        0.5455897579        1.9047969396
 C       -13.5084547998       -0.2018298033        4.1237016986
 C       -13.2653092946        0.7939463321        5.3557495718
 C       -12.1249013383        1.7378989835        4.8091463016
 O       -11.3417131563        1.5842692072        3.8167617051
 C       -11.8719752052        2.9833144279        5.7061883579
 C       -11.6422399572        4.1321882135        4.8031489944
 O       -12.4863086270        4.9194868201        4.4708255510
 C       -10.2105580029        4.1555894627        4.0141893015
 C       -10.4006492441        5.3530130031        2.9490778928
 C        -9.2611707392        5.4321807426        1.9894313886
 O        -9.4056112348        5.1105608641        0.8008778802
 C        -7.9372677724        6.0955367728        2.4611478712
 C        -7.2175443507        6.7946413636        1.3609361514
 O        -6.4246904789        6.1672719828        0.7225286100
 C        -7.3856393160        8.3651056027        0.9571116373
 C        -8.0129576156        8.4539702361       -0.4194872831
 C        -6.9980010657        8.1622754030       -1.6314484775
 O        -5.8181236091        8.4585332987       -1.4443231357
 C        -7.4865548475        7.6449946833       -3.0233977706
 C        -6.5805416724        6.2391532834       -3.1454874796
 O        -6.6991058002        5.4773910508       -2.2450338982
 C        -5.6686352241        5.9784417932       -4.3171186311
 C        -6.2032971135        4.6824157881       -5.0831714624
 C        -7.5882348316        4.7053933236       -5.5596064528
 O        -8.0357914414        5.6963972882       -6.0847672138
 C        -8.5688553823        3.4207645453       -5.3995926284
 C        -8.9778772814        3.2748822022       -3.8511095664
 O        -8.7675204390        4.1703686486       -3.0726600919
 C        -9.4498261844        1.9246199413       -3.3752967542
 C        -9.0458730033        1.5112913110       -1.9878800143
 C        -7.5433899896        1.5036759044       -1.6960132636
 O        -7.1201938267        2.5053344871       -1.1056757526
 C        -6.5665989311        0.2825884561       -1.7810503930
 C        -6.5793123671       -0.3134878778       -3.2589385063
 O        -7.6453203692       -0.5374756987       -3.8248376717
 C        -5.2974242935       -0.6877783509       -4.0324619455
 C        -5.1395017965        0.8883371356       -1.3418645899
 C        -7.2391691904       -0.8011089470       -0.8007855467
 C        -9.9822941309        3.6680468340       -6.1386314881
 C        -7.9123673620        2.1736002532       -5.8976490574
 C        -8.9144884159        7.1083284210       -3.0554725111
 C        -7.2504058841        8.8703468787       -4.0235874024
 C        -8.1711540944        7.1082367168        3.5883122204
 C        -7.0471328207        4.9565969118        3.1391077433
 C       -13.0395041083        3.3435287971        6.7460335763
 C       -10.6217325283        2.7114395033        6.6522301285
 C       -16.4602611330       -1.2889912121        2.4851254744
 C       -16.7782327566        1.3056066844        2.4809413329
 H       -18.5263213600        0.9423189329        5.3547203971
 H       -17.0968237443        2.0303663910        4.9351202143
 H       -16.8130531546        0.8905687822        6.3572078437
 H       -12.6583851726       -0.2177387570        3.5848714519
 H       -13.8727816291       -1.2807834045        4.3789961940
 H       -13.0474154659        0.1225648739        6.2394320102
 H       -14.1171927756        1.4348816255        5.6140547228
 H        -9.9568271647        3.3344563808        3.2514959276
 H        -9.3774807561        4.4271888940        4.6656991305
 H       -10.6189415291        6.3032842778        3.3556167522
 H       -11.4634002907        5.0283038110        2.4166032556
 H        -6.4447397825        8.8331240756        1.0539619050
 H        -8.0605143933        8.8079502083        1.6727747772
 H        -8.4184286478        9.4686157133       -0.8349345633
 H        -8.9340292674        7.8365871119       -0.5009267909
 H        -4.6232024474        5.8366386185       -4.0254974066
 H        -5.7878667944        6.8446982552       -5.0978203634
 H        -5.8816350556        3.7691716887       -4.5283730676
 H        -5.5432037112        4.6045114684       -6.0151125019
 H        -9.2910701933        1.0453643679       -4.1342263921
 H       -10.4892408256        1.8777170443       -3.3471230307
 H        -9.4256830308        0.5479042000       -1.6265484723
 H        -9.4504177847        2.2286315159       -1.2728382879
 H        -4.6533215207       -1.3249066978       -3.4708298801
 H        -4.8102868055        0.2954468528       -4.0393167647
 H        -5.5503364641       -1.0713157501       -5.0255646636
 H        -4.4468595418        0.1539284931       -0.9305471160
 H        -5.0839172553        1.5962880828       -0.4694573344
 H        -4.6063256016        1.4173851191       -2.1077369486
 H        -6.7027976795       -1.6916515934       -0.4623736408
 H        -8.1717841455       -1.0820731491       -1.2306255298
 H        -7.3837281470       -0.2722331461        0.0794316438
 H       -10.7110429344        4.1120355775       -5.4567137031
 H       -10.5940945481        2.8288055571       -6.5117690970
 H        -9.8633615084        4.4638886224       -6.9802026889
 H        -7.4249704992        2.4480098598       -6.7939884360
 H        -8.7143336494        1.5061539357       -6.2337550865
 H        -7.1846313341        1.5721033221       -5.2766131835
 H        -9.6352883401        7.8697489063       -2.9073479030
 H        -9.0883922624        6.3722864559       -2.2230470767
 H        -9.0132322515        6.5357177035       -3.9848072686
 H        -7.2246022350        9.7614910192       -3.4100744977
 H        -8.0504905801        8.9682989190       -4.6628333430
 H        -6.3015345577        8.8638819387       -4.3892603671
 H        -8.7141259402        6.7396538572        4.5028608228
 H        -9.0230554072        7.7500344246        3.2505966703
 H        -7.2384418987        7.7444582658        3.7553894141
 H        -7.2092549636        3.9558646935        2.8291593621
 H        -7.1364035621        4.7907212755        4.2630671485
 H        -6.0385063184        5.2504386762        3.0067602106
 H       -12.5305238801        4.0192280051        7.3725231142
 H       -13.1872921732        2.4234637728        7.2472359051
 H       -13.8921814192        3.8461622165        6.4002063822
 H       -10.5579727847        3.6090114441        7.3006180255
 H        -9.7130227947        2.5118214021        6.1610866476
 H       -10.8124700453        1.8400015422        7.1904226621
 H       -17.5550639308       -1.4300907797        2.5019241711
 H       -16.0009374408       -2.0959733866        3.1664097678
 H       -16.0838732417       -1.4084785497        1.4551153927
 H       -16.6981571467        2.3049078967        2.8768939997
 H       -17.7932918775        1.3787466619        2.4033337942
 H       -16.4795296569        1.2225930614        1.4736151552
 Na       -7.7071475505        4.5273028593       -0.4870793659
