117

 C       -17.2431384118        1.0267865019        5.6132471675
 C       -16.4445420329       -0.0186314394        4.7879797143
 O       -16.0954608177       -1.0642236605        5.2529568452
 C       -16.0297704883        0.1431585459        3.2409464168
 C       -14.4583352952        0.3609237305        3.0475705165
 O       -14.0763205331        0.8143888965        2.0029339978
 C       -13.5263096667       -0.3491560339        4.1010574742
 C       -13.1547223638        0.7561336670        5.1608685947
 C       -12.1616725538        1.7937095020        4.9128497280
 O       -11.4973037640        1.5222277621        3.8393398693
 C       -11.8384802737        2.9870793892        5.8069007831
 C       -11.5948721383        4.2892743204        4.7146776683
 O       -12.4703341974        5.0578061737        4.4964669040
 C       -10.3166308652        4.2202356952        3.9862265659
 C       -10.4057591521        5.4170367676        2.9303941007
 C        -9.1998007654        5.5764177619        2.0240811036
 O        -9.4418734427        5.2507571238        0.8510218550
 C        -7.7885459941        6.2619783358        2.5628963627
 C        -7.0771049921        6.8517515487        1.3434961380
 O        -6.5751068039        6.1937116472        0.4879666068
 C        -7.3592493387        8.2992735964        0.9950173932
 C        -8.0240218584        8.3890878089       -0.4660918793
 C        -7.0235511456        8.1397133848       -1.6471130550
 O        -5.8334855506        8.3911339468       -1.5857600021
 C        -7.3916874035        7.5763940176       -3.0500879707
 C        -6.5241988594        6.2478582827       -3.1853414472
 O        -6.5812930744        5.4500371417       -2.3130940709
 C        -5.7229340519        5.9652584989       -4.4372014889
 C        -6.0263875883        4.5507838985       -5.1094094790
 C        -7.6424735313        4.6025623809       -5.5614328211
 O        -8.0452273114        5.5843744088       -6.1187612641
 C        -8.6080602315        3.4022148180       -5.3902562521
 C        -8.9688989209        3.1358271687       -3.7729303473
 O        -8.7462901256        4.0973307032       -3.0363474238
 C        -9.4629935718        1.8326206101       -3.3912576396
 C        -9.1347433306        1.4760037415       -1.9460242833
 C        -7.5487832155        1.5111555363       -1.5945610080
 O        -7.0354610861        2.4533906681       -0.9831913504
 C        -6.6876431641        0.2552601067       -1.7455681184
 C        -6.6761774871       -0.2664025740       -3.1631974454
 O        -7.7733418131       -0.5570387906       -3.6025744076
 C        -5.3401363099       -0.6556882577       -3.9468106324
 C        -5.2125777224        0.4486533478       -1.3432932389
 C        -7.4017331815       -0.7724968921       -0.9741668774
 C        -9.8567689146        3.6755612236       -6.3163919921
 C        -7.8428158715        2.0836975667       -5.7789657346
 C        -8.9609382459        7.0981054737       -3.2126158186
 C        -7.2756172317        8.7385188904       -4.1523787731
 C        -8.2191049005        7.2804979308        3.7680266305
 C        -6.8875287632        5.0733337545        3.0477100573
 C       -13.1722589170        3.5308064924        6.6641543181
 C       -10.7421368569        2.6849807218        6.7280323320
 C       -16.3777085973       -1.1113187608        2.4851292424
 C       -16.6342441353        1.1830744976        2.3485767171
 H       -18.2451249836        0.8087943524        5.3766927466
 H       -17.1764969382        1.9854133970        5.0390289801
 H       -16.9331219347        1.0060027951        6.6892570876
 H       -12.7263088772       -0.8071936279        3.5289636545
 H       -14.2180228286       -1.0486383238        4.6287121202
 H       -12.8353742561        0.0868191561        6.0454772926
 H       -14.1193260648        1.1693394731        5.4582771835
 H       -10.1189473299        3.2483316524        3.4412959982
 H        -9.5778755546        4.5599787052        4.7350686912
 H       -10.6838334097        6.2663778982        3.4762491158
 H       -11.2244667869        5.2696256067        2.3716069099
 H        -6.4430169844        8.7815683169        1.1244298183
 H        -8.0266444330        8.6076227178        1.7404717442
 H        -8.4908118723        9.3065164472       -0.8961674958
 H        -8.8305160858        7.6526062522       -0.5935488839
 H        -4.6762587683        5.8969788858       -4.0106726118
 H        -5.8210424152        6.7754939256       -5.1553808252
 H        -5.6568159155        3.8119726426       -4.3275679206
 H        -5.3622659345        4.2960371110       -6.0437965022
 H        -9.2937946038        1.0581491891       -4.0875479825
 H       -10.5412223466        1.7823094800       -3.4477776824
 H        -9.5873226399        0.5563644985       -1.5627680379
 H        -9.5394599687        2.3504005884       -1.1902847900
 H        -5.0326828862       -1.4494327820       -3.2977228599
 H        -4.4897881461        0.0784548672       -3.9216131359
 H        -5.6138612410       -1.0798840643       -4.9140501893
 H        -4.7301655488       -0.2882273996       -0.8161472217
 H        -5.2894972885        1.1841847872       -0.4590418152
 H        -4.4851732566        1.0364610891       -1.9701568882
 H        -6.9856877783       -1.6971905621       -1.1409042596
 H        -8.3862398535       -0.8294187782       -1.1709320943
 H        -7.2442212787       -0.5514650296        0.0566914135
 H       -10.7521972849        4.1897009158       -5.9870043648
 H       -10.2921843985        2.6863139643       -6.5457419505
 H        -9.5624235890        4.1030115402       -7.2404915815
 H        -6.9104902448        2.3749756167       -6.3060468348
 H        -8.3510319131        1.2761821970       -6.3233232960
 H        -7.4544220310        1.6268966566       -4.8609500910
 H        -9.6176202488        7.8764688762       -2.9572921117
 H        -9.1874221799        6.2897412024       -2.3955609153
 H        -9.0686655120        6.4974283646       -4.1390703549
 H        -7.5687825623        9.7122879982       -3.7404145729
 H        -8.1359945552        8.4332748730       -4.7065878368
 H        -6.3439046884        8.9217973940       -4.5983784854
 H        -8.2513146164        6.9411482632        4.8053232819
 H        -9.3131658095        7.6428325975        3.6733856785
 H        -7.5028538750        8.1849996350        3.6206960175
 H        -7.1800353095        4.1073649780        2.4876828157
 H        -6.8607431603        4.6593917202        4.0430834222
 H        -5.8565061305        5.3685472814        2.8503210959
 H       -12.8556832615        4.2782772585        7.3543194251
 H       -13.6042752463        2.6126340728        7.1375139379
 H       -13.8434733754        3.9534356253        5.8783333314
 H       -10.9616052560        3.1126185455        7.6455202787
 H        -9.7549739106        3.1744429284        6.3662277733
 H       -10.5252352617        1.6014851226        6.7672924567
 H       -17.3483947923       -1.5023393563        2.9766120023
 H       -15.6600884470       -1.9020946398        2.4645640016
 H       -16.6423516075       -0.8939875012        1.4534247179
 H       -16.5627502065        2.2213000600        2.6074147106
 H       -17.7408383736        1.4228783066        2.3617175460
 H       -16.3137459886        1.0153855430        1.2601555259
 Na       -7.8116233373        4.5565916174       -0.4649174446
