117

 C       -16.9159926021        1.2149727271        5.4060508143
 C       -16.1674415132       -0.0195213858        4.8187231785
 O       -16.0759495984       -1.1199083627        5.3201932899
 C       -15.8762404576        0.2651430852        3.2039903333
 C       -14.3455141260        0.5845459153        3.1931294510
 O       -14.0010793295        1.4903202946        2.5345084011
 C       -13.4126516851       -0.2699046656        4.1555584001
 C       -13.1464261302        0.6598770573        5.3609393174
 C       -12.1916964301        1.8106303540        4.7674386800
 O       -11.3613888218        1.5577217970        3.8071927845
 C       -12.1532755309        3.1661441662        5.6088148859
 C       -11.8136191661        4.4760082624        4.7992041843
 O       -12.4848906081        5.4328384332        4.8493129156
 C       -10.4468462321        4.4766252698        4.0169678057
 C       -10.2788449963        5.7915253474        3.1851650983
 C        -9.2371818178        5.8591532385        2.1121347255
 O        -9.3656044109        5.3733949522        0.9654228608
 C        -7.6900558290        6.4797203443        2.5343132680
 C        -7.1636986328        7.0012686854        1.1355036180
 O        -6.6610250254        6.2629375387        0.3511958091
 C        -7.5072602588        8.5123410009        0.7120062397
 C        -8.1373643973        8.5430827153       -0.7306540516
 C        -7.0396801043        8.1200118050       -1.8543904980
 O        -5.8642403251        8.4104845989       -1.6617303209
 C        -7.3156732137        7.4726574442       -3.1806108884
 C        -6.4290824107        6.1610814967       -3.3067649310
 O        -6.3782459791        5.3852985481       -2.4237301193
 C        -5.6305122737        5.8294270360       -4.6160257581
 C        -6.0347065904        4.4227791038       -5.1492322440
 C        -7.5643102641        4.3653195239       -5.5098271706
 O        -8.0616615893        5.3207751841       -6.0013714188
 C        -8.3749294518        3.0208393434       -5.3623109886
 C        -8.8252245158        3.0513773435       -3.8170050672
 O        -8.6318648788        4.1620594661       -3.3102800628
 C        -9.3663850977        1.8705070948       -3.1415228487
 C        -9.2454849470        1.5263457513       -1.6733370863
 C        -7.7430076907        1.1896547663       -1.3709122135
 O        -6.9569801824        2.0466306095       -0.9144977988
 C        -7.0122359277       -0.2133481253       -1.4815243213
 C        -7.0104586502       -0.5743119924       -3.0311148698
 O        -8.1106598131       -0.6420782383       -3.5724264301
 C        -5.6451271596       -0.6908147578       -3.8492546965
 C        -5.5874495399       -0.0239231406       -0.9520293993
 C        -7.8402447476       -1.2468715729       -0.7333978810
 C        -9.6672398316        2.9759579838       -6.1835829518
 C        -7.4075192520        1.8876363324       -5.7779322796
 C        -8.9096986439        7.0311142955       -3.2507248376
 C        -7.1635932075        8.5814091320       -4.3128551698
 C        -7.6493360685        7.6092635730        3.6498719103
 C        -6.8774838934        5.2823924068        2.9640461400
 C       -13.5286434047        3.3249063728        6.4667617017
 C       -11.0333820154        2.9624502941        6.7122624736
 C       -16.1276647412       -0.9390808120        2.3310604376
 C       -16.6279016822        1.3775762143        2.5459195803
 H       -17.8171816242        1.4436174583        4.8183371931
 H       -16.3338804506        2.1849742074        5.2594305673
 H       -16.9432468504        1.1361844910        6.5384757983
 H       -12.5116030226       -0.4243985655        3.6639360040
 H       -13.9660739943       -1.2537729502        4.3973819361
 H       -12.4892792040        0.0503635364        6.0223129082
 H       -14.0351094589        0.8746089218        5.8881518607
 H       -10.3212803647        3.6084291021        3.2891005413
 H        -9.7050265599        4.5280448202        4.8069442521
 H       -10.3193578763        6.5528014800        4.0207232685
 H       -11.2492769834        5.9789477451        2.6995278594
 H        -6.5999001339        9.1265299726        0.8433007191
 H        -8.3445872102        8.8270405363        1.3974618996
 H        -8.6633865107        9.5686432461       -0.8445823309
 H        -8.7748961033        7.6692722880       -0.9285544587
 H        -4.6026371390        5.7374186356       -4.2857488891
 H        -5.7899744640        6.5433154225       -5.4576889692
 H        -5.8791984484        3.7120435453       -4.3813586400
 H        -5.4482187962        4.1727900848       -6.0374621903
 H        -9.0086273875        0.9639420629       -3.7256840483
 H       -10.3965502124        1.6637200165       -3.3654262410
 H        -9.8289394140        0.7124990638       -1.4177358501
 H        -9.3475093700        2.3993447187       -1.0149652950
 H        -4.9515135657       -1.4329930374       -3.5906276474
 H        -5.1884487230        0.3272364525       -3.8513113620
 H        -6.0648911307       -0.8068101206       -4.8439831675
 H        -4.9677438575       -0.6596469056       -1.4703388582
 H        -5.1791158918       -0.0343271541        0.0286063809
 H        -5.2598411390        0.9774835106       -1.2880980200
 H        -7.2640778824       -2.2231810656       -0.7498291593
 H        -8.8112831183       -1.4816616236       -1.2181653726
 H        -8.1284159709       -0.8775677909        0.3176228544
 H        -9.9504370094        4.0093962369       -6.4433387883
 H       -10.5475937655        2.6128964234       -5.5937782193
 H        -9.7220218032        2.3386436056       -7.0963838424
 H        -7.3704835929        1.7031985908       -6.8141077800
 H        -7.8910522521        1.0254571492       -5.3034227737
 H        -6.3800454472        1.9212930815       -5.3935177762
 H        -9.4991778490        7.8294862585       -3.1029599369
 H        -9.2286454710        6.2889791080       -2.4489503201
 H        -9.1058671372        6.4081944830       -4.0794535943
 H        -7.9927373812        9.3204286549       -4.1140828893
 H        -7.4254357767        8.0582631232       -5.2275222358
 H        -6.2391553074        9.0622261924       -4.2230963316
 H        -8.3051074554        7.2346382625        4.4041600429
 H        -8.0264618659        8.5561108833        3.2012156419
 H        -6.6514576234        7.7257805921        4.1376891694
 H        -6.4007689403        4.7363794193        2.1556722687
 H        -7.4688985472        4.4745821974        3.4614585585
 H        -6.2110829443        5.5516245875        3.7026191200
 H       -13.4089108438        4.3005068384        6.7393895718
 H       -13.6863113922        2.6877423428        7.3260275142
 H       -14.2418226945        3.2904944716        5.6909094090
 H       -11.0937378065        1.9482687923        7.1060712660
 H       -11.4036823506        3.5773241909        7.5207940144
 H       -10.0049850316        3.1270844990        6.4195217048
 H       -16.7382120700       -1.7404366984        2.8066974786
 H       -15.1847131731       -1.4231275299        2.0671464009
 H       -16.5352745595       -0.7164516793        1.3868935006
 H       -16.5321124597        2.3306143222        2.9247017463
 H       -17.6328054915        1.3773949634        2.7172269791
 H       -16.3285996319        1.5780793959        1.5991973910
 Na       -7.9156944679        4.6640090660       -1.0985418211
