117

 C       -16.8314614483        1.5415805595        5.5604523350
 C       -16.3465438501        0.2880459748        4.5823622666
 O       -16.1884959843       -0.8572663867        4.9543038509
 C       -15.7282628523        0.5425587135        3.1557368136
 C       -14.4459329985        1.2243504966        3.2496010950
 O       -14.3914941114        2.4334449353        3.1530833060
 C       -13.1343359948        0.5804561305        3.7642176592
 C       -12.5287657374        1.1221666667        5.2264990246
 C       -11.4584807536        2.3897479322        5.0013701462
 O       -10.3959330016        2.2711043165        4.5244959320
 C       -11.8447515867        3.7276065841        5.6459426457
 C       -11.6058381147        4.9115298635        4.5362820019
 O       -12.0303905862        6.0145374596        4.8505747988
 C       -10.9679545355        4.7520779940        3.0680873223
 C       -10.0786116849        6.0357886739        2.8927094128
 C        -8.8772397057        5.6131836746        1.9606366686
 O        -8.8283906889        4.6665885189        1.1806978234
 C        -7.6707429077        6.6336298305        2.0388134167
 C        -7.6626953561        7.2282113111        0.5691984218
 O        -7.5088280265        6.5748951792       -0.4340491001
 C        -7.8883573590        8.7579395474        0.2567843978
 C        -7.9308464360        8.9697974629       -1.3283799047
 C        -6.7365321092        8.3304686997       -2.2239695629
 O        -5.6171088938        8.2619230415       -1.7378206483
 C        -6.9548710974        7.8243336629       -3.6287438733
 C        -6.4462975936        6.2824445830       -3.7851922853
 O        -6.4296227863        5.4184831182       -2.8436251658
 C        -6.2368993802        5.7740534581       -5.1772696796
 C        -6.2853222315        4.2655252872       -5.2237847238
 C        -7.6833860667        3.7708427054       -5.5982367222
 O        -8.4378821905        4.5397485190       -6.1268835605
 C        -8.2791693298        2.3337178400       -5.1348805624
 C        -8.6627688123        2.3956732720       -3.6284414577
 O        -8.4231113001        3.4501777890       -3.1262871860
 C        -9.4576636520        1.2862686797       -3.0284994700
 C        -9.5425403986        1.3122013518       -1.4912101091
 C        -8.3074901263        0.8642245287       -0.7651863782
 O        -7.5647220453        1.6621696799       -0.2430742230
 C        -7.9984216525       -0.6616492315       -0.5435618671
 C        -7.5562835735       -1.2211747447       -2.0410170299
 O        -8.3630720357       -1.2056607950       -2.9751548385
 C        -6.1041232306       -1.6545796217       -2.2131067626
 C        -6.9271341321       -1.0057000151        0.6040153627
 C        -9.1988131102       -1.6075670086       -0.1055221697
 C        -9.4466239836        2.0828860025       -6.0625066611
 C        -7.1642546671        1.3144137155       -5.2605140804
 C        -8.4419393835        7.9394615553       -4.1879048905
 C        -5.9235222150        8.6866738265       -4.7510213412
 C        -7.6710781495        7.7580272107        3.1238898449
 C        -6.3962022437        5.6303355550        2.1040426458
 C       -13.3408764558        3.8017807288        6.1208241645
 C       -10.8292460228        3.9895283575        6.8544383913
 C       -15.4165277169       -0.7837650676        2.4113023093
 C       -16.5697734609        1.4375160231        2.3032596272
 H       -16.0449697643        2.3531214522        5.8859295934
 H       -17.0293662579        0.9902571160        6.4649917360
 H       -17.6492749330        2.1704725113        5.1995440395
 H       -12.2928553451        0.7219809847        3.0050554497
 H       -13.1604571701       -0.5171658797        3.7064735784
 H       -11.9232049269        0.2963464895        5.4243029930
 H       -13.3305409981        1.1159935421        5.9911224378
 H       -11.7623655998        4.5610328280        2.3719499843
 H       -10.3296534901        3.8119817574        2.9312718530
 H        -9.7126603950        6.2972007606        3.8210644623
 H       -10.6607446712        6.7752205194        2.5065482446
 H        -7.0183214233        9.2857987095        0.7761371366
 H        -8.8218989103        9.1568087764        0.7564697811
 H        -7.8985266698       10.0299680608       -1.6113287631
 H        -8.9382089385        8.5996805780       -1.7720431930
 H        -5.2505390357        6.1864064557       -5.5723831720
 H        -6.9939430238        6.1706161978       -5.7962681433
 H        -6.0286629921        3.8432971368       -4.2752652568
 H        -5.6412768284        3.9057993848       -5.9504727605
 H        -9.2373982312        0.2930277141       -3.3333451396
 H       -10.5427103980        1.4432004048       -3.2988136354
 H       -10.3842014469        0.5351377913       -1.1635265475
 H        -9.8271475283        2.2108779932       -0.9465962851
 H        -6.0574724167       -2.5577382895       -1.5252568117
 H        -5.4790002864       -0.8989454815       -1.7678671711
 H        -5.7837950718       -2.0549561826       -3.1750019095
 H        -6.7658267093       -2.1252820812        0.4853626470
 H        -7.2517769279       -0.8899847291        1.5891421688
 H        -5.9297258548       -0.7227885626        0.6008811743
 H        -8.7824464233       -2.5595790955        0.3943651519
 H        -9.9084821286       -1.7429745062       -0.9562921200
 H        -9.6458392098       -1.2889205944        0.8649260875
 H       -10.0512936195        2.9545639551       -6.2014068287
 H        -9.9901123262        1.2670055351       -5.7104187604
 H        -8.9928518488        1.7512013759       -7.0395570035
 H        -6.9706915714        1.0293715187       -6.3298598105
 H        -7.5479000166        0.4696814634       -4.7011839777
 H        -6.2870828840        1.7101153933       -4.7547784545
 H        -8.7433196056        9.0211475251       -4.0565022766
 H        -9.1674816014        7.4345345022       -3.6845593928
 H        -8.6059054907        8.0141911835       -5.2211220085
 H        -6.2950444490        9.7339954700       -4.8062107910
 H        -5.9669202853        8.2725908887       -5.7965049207
 H        -4.8651561915        8.5233701242       -4.3660324664
 H        -7.7080731519        7.3175864555        4.1231614326
 H        -8.5807972146        8.3419739132        3.0319409750
 H        -6.7645815908        8.2122414923        2.9016081675
 H        -6.2432354853        5.2210770785        1.1267220884
 H        -6.5177687166        4.8823022618        2.8766359638
 H        -5.4486281986        6.2234235295        2.1743070142
 H       -13.2842192256        4.8692638073        6.5621851905
 H       -13.3521247289        3.0183592883        6.8840173842
 H       -14.1195998270        3.6481766068        5.3448959441
 H       -10.7778568346        5.0404811609        7.2744657898
 H        -9.7883662808        3.8892514232        6.4481663197
 H       -10.9799869785        3.2483772652        7.6325684726
 H       -16.2904418026       -1.3509796538        2.2272681772
 H       -14.7051258772       -1.4407565948        2.8602887764
 H       -15.0619442901       -0.4931217377        1.4082107846
 H       -16.7165576071        2.4545339953        2.6850780358
 H       -17.4918690969        1.1077126960        2.1177584897
 H       -16.2842844951        1.5182849195        1.3278829293
 Na       -7.6053818819        4.0630770220       -1.0156954277
