117

 C       -16.6897903315        1.3822979672        5.3443667185
 C       -16.3207140239        0.2088300228        4.5528626668
 O       -16.2083417842       -0.8179958160        5.1831964648
 C       -15.7565488658        0.5684414195        3.0200373741
 C       -14.3274065707        1.4743291342        3.4210432631
 O       -14.3426814480        2.5753037756        3.0367611594
 C       -13.0153839491        0.7291152188        3.8939219656
 C       -12.5319048775        1.3052363504        5.2114955184
 C       -11.4803790112        2.2767296709        5.0657343610
 O       -10.4061245720        2.1116374969        4.5097592424
 C       -11.7553597502        3.7730608016        5.5798106831
 C       -11.6252207868        4.9572983796        4.5087524412
 O       -11.9061109375        6.0517723914        4.9427619799
 C       -10.9450511452        4.6790028739        3.2385076259
 C        -9.9946356098        5.8954971799        2.7790092999
 C        -8.8122761508        5.5760578305        1.8901647000
 O        -8.7958155020        4.6054731263        1.1921808727
 C        -7.6877172356        6.7494613166        1.8223628044
 C        -7.7347569567        7.3204585822        0.3652180212
 O        -7.6306062351        6.4567501586       -0.5055676650
 C        -7.8685336614        8.7791306796        0.0703080097
 C        -7.8621498020        9.0383947992       -1.4596912975
 C        -6.6439199287        8.3389752350       -2.1828474564
 O        -5.5336008577        8.3425475249       -1.7133437563
 C        -6.9155693519        7.8144734900       -3.6759163353
 C        -6.6134433507        6.2617129619       -3.9080969720
 O        -6.4163638760        5.4938727266       -2.9472031397
 C        -6.3403423809        5.7631577699       -5.3232521788
 C        -6.2360197625        4.1889882810       -5.2173596395
 C        -7.7240431321        3.7667680229       -5.4937057410
 O        -8.4471848048        4.4970967405       -6.1243805448
 C        -8.2919652981        2.2543508549       -5.1841505764
 C        -8.8649800166        2.4987865410       -3.6421024525
 O        -8.3770795152        3.3670273873       -2.9425521980
 C        -9.5545106858        1.2633218760       -2.9989299897
 C        -9.6041685399        1.2932367068       -1.4382563394
 C        -8.3053393361        0.8438667090       -0.5675993972
 O        -7.4980758770        1.6739846612       -0.2439638423
 C        -8.0702557935       -0.7793597381       -0.4614015427
 C        -7.5515902161       -1.2475235728       -1.7683643801
 O        -8.3077595561       -1.3531838280       -2.7406603392
 C        -6.1662645493       -1.7974132317       -1.8307547622
 C        -6.9722165852       -1.0476963897        0.5606368326
 C        -9.4133220525       -1.5219052717       -0.2428548147
 C        -9.4826565140        1.9789608178       -6.1939531867
 C        -7.1375859198        1.2235002132       -5.1987222399
 C        -8.2352657155        8.0927507733       -4.2515394560
 C        -5.9233609985        8.5075971262       -4.5907529210
 C        -7.7080846221        7.5087788790        3.1154853186
 C        -6.3581250099        5.8449694649        2.0059361300
 C       -13.2745564133        3.9625335186        6.1857397283
 C       -10.7484703488        4.2060356339        6.6181627254
 C       -15.4979287574       -0.8404392519        2.3285195704
 C       -16.6384458666        1.5577452966        2.1978138516
 H       -15.9822025115        2.1173986857        5.6518919198
 H       -17.1432104679        0.9547887409        6.3147710226
 H       -17.3801376649        1.8986897785        4.5370491271
 H       -12.2375481476        0.6608023273        3.1674819568
 H       -13.2840931074       -0.4447498629        4.0053695054
 H       -12.2096086411        0.4377797680        5.7651676155
 H       -13.4313047932        1.6887145988        5.7621455455
 H       -11.8113182590        4.4560492012        2.5321711806
 H       -10.4711526048        3.6692250846        3.1733310212
 H        -9.5818277145        6.4281399901        3.7908966587
 H       -10.6467098048        6.5334110797        2.2811044138
 H        -7.1303207618        9.3090841134        0.7077442792
 H        -8.8334626791        9.0785450905        0.4790530047
 H        -7.6702648303       10.1217914846       -1.7203838400
 H        -8.8947593076        8.8617619573       -1.9441365326
 H        -5.4402521962        6.2695603611       -5.6914098610
 H        -7.1511165921        6.0564022367       -6.0435620979
 H        -5.9160214040        3.7911899087       -4.2335726254
 H        -5.6059145016        3.7543736584       -5.9986316831
 H        -9.0574971016        0.3409074248       -3.3976280511
 H       -10.5698837789        1.1827754112       -3.2157407967
 H       -10.5953356593        0.9129827982       -1.0286889581
 H        -9.6784335320        2.4128972781       -1.0614107745
 H        -6.1506279490       -2.7744264120       -1.3243302949
 H        -5.4030363879       -1.1619464761       -1.4051485789
 H        -6.0526789672       -2.0970805609       -2.8771348188
 H        -6.5758058893       -1.9949249895        0.6491949811
 H        -7.3602328433       -0.8625885893        1.5319920825
 H        -6.0635056962       -0.4414580862        0.4591364228
 H        -9.2142924432       -2.4546479453        0.3114669082
 H        -9.9568709991       -1.5893319736       -1.2116213120
 H        -9.9583556442       -1.0556741404        0.6565189855
 H        -9.8116098326        2.9735882046       -6.4746344469
 H       -10.2933920665        1.5134861530       -5.6007370851
 H        -9.2755848459        1.3096918305       -7.0997781788
 H        -6.8242637497        1.2446808797       -6.1930142637
 H        -7.5506886911        0.2373758230       -4.9833417864
 H        -6.3374456562        1.4976823892       -4.4720522738
 H        -8.4418527405        9.0913585485       -4.1862554022
 H        -9.0598082532        7.6463526132       -3.6239737603
 H        -8.4547466796        8.0549099161       -5.2824039433
 H        -6.3216658331        9.5693852370       -4.5380284858
 H        -6.0596677519        8.2111450483       -5.6268680904
 H        -4.9207821375        8.3898503199       -4.2642212032
 H        -7.2840060304        6.9634578328        3.9291484257
 H        -8.7407199099        7.6589734415        3.4402201188
 H        -7.0207038296        8.3810729518        2.8543966355
 H        -6.0793354414        5.1894015895        1.2164803517
 H        -6.5431351037        5.2948646263        2.9716242259
 H        -5.5625669305        6.5325329273        2.1362577909
 H       -13.4666950465        5.0013470035        6.2990261572
 H       -13.2755545069        3.3676785603        7.0860997948
 H       -13.9561336614        3.4470313836        5.4966413048
 H       -11.2207382757        4.9851239912        7.2791239443
 H        -9.8762154979        4.7739151120        6.3043426103
 H       -10.5185350544        3.3745573673        7.2289835597
 H       -16.3563253073       -1.4477376871        2.3724252650
 H       -14.7640588066       -1.3381893978        2.9751706061
 H       -15.0962992825       -0.8316694208        1.3344994691
 H       -16.7349765403        2.5723897133        2.4614814670
 H       -17.6729700089        1.1822554316        2.0130079310
 H       -16.3645461542        1.5731460088        1.1575210043
 Na       -7.6948675983        4.0714076973       -0.9249507810
