117

 C       -16.8030762419        1.5257670666        5.2689923383
 C       -16.0527159715        0.4562415215        4.4192134504
 O       -16.1395909513       -0.6535107254        4.8823342583
 C       -15.5373910486        0.6594651598        2.9887942964
 C       -14.2536714289        1.4362598070        3.3361963032
 O       -14.1853657052        2.6324132539        2.9896306808
 C       -13.1047337232        0.5778420052        3.9808880924
 C       -12.7616664356        1.2712184587        5.3443277205
 C       -11.6292741459        2.4922509403        5.2277571290
 O       -10.6154266003        2.0939589542        4.6368195563
 C       -11.7653435118        3.9138964861        5.5988585277
 C       -11.4484802429        4.9889042987        4.4864792734
 O       -11.7555427935        6.1849772123        4.5585603031
 C       -10.8088194741        4.6554066586        3.1401879269
 C        -9.9602860391        5.8612312605        2.7324212861
 C        -8.7432226183        5.4498250193        1.8816655824
 O        -8.8584832544        4.4442210448        1.2122749844
 C        -7.6109124729        6.6264454724        1.5200656370
 C        -7.8621498204        7.1353744685        0.2126386826
 O        -8.0103764867        6.4653035848       -0.7887457798
 C        -7.6989441872        8.6600571415        0.0488335876
 C        -7.8069354714        9.0465644305       -1.4443581709
 C        -6.6239708784        8.3723763593       -2.3592564851
 O        -5.5376241607        8.2406682458       -1.8111544361
 C        -6.6793301182        7.8618212442       -3.7933474313
 C        -6.5126920131        6.2435571133       -3.7780676343
 O        -6.6482586958        5.5741935396       -2.7627746148
 C        -6.0900302402        5.5984045867       -5.1210407798
 C        -6.4458797785        4.1674601699       -5.3695812300
 C        -8.0138098514        3.7158030880       -5.5621597872
 O        -8.8172916665        4.3626828567       -6.1745943315
 C        -8.4079619351        2.1702280376       -5.0747838059
 C        -8.8262202616        2.4109274604       -3.5177229505
 O        -8.3217929682        3.3243670585       -2.9230040695
 C        -9.6687653593        1.2632118340       -2.8810868995
 C        -9.5899779856        1.3730952926       -1.3306370288
 C        -8.3781531806        0.8487668262       -0.6667851554
 O        -7.4789774299        1.6648371608       -0.4516833723
 C        -8.1472741859       -0.7572793686       -0.3684646464
 C        -7.4553869900       -1.5404435009       -1.5795759765
 O        -8.1343692401       -1.7459241976       -2.5741386384
 C        -6.1423306993       -2.1167791223       -1.4967552352
 C        -7.6394469143       -0.6592997542        1.0740727014
 C        -9.6494644362       -1.2586429256       -0.0680140870
 C        -9.6225906991        1.6124395899       -5.9130029391
 C        -7.1178832333        1.0445104807       -5.0450092990
 C        -8.0705653006        8.1653634755       -4.3088470904
 C        -5.4524199564        8.7033335146       -4.5502917744
 C        -7.7732066756        7.8039047691        2.5020828137
 C        -6.2145612035        6.0352347421        1.5339851843
 C       -13.0585937512        4.2205477094        6.3394761214
 C       -10.4628407094        4.2233630586        6.6737957836
 C       -15.2729538144       -0.6923497400        2.3643297219
 C       -16.7754499879        1.4169454476        2.2939725347
 H       -16.1169678913        2.3727180517        5.5754783920
 H       -16.7844658979        1.1319099940        6.1711726641
 H       -17.6317620996        1.8591007589        4.8081746110
 H       -12.1917656527        0.5021080249        3.3104256841
 H       -13.4932414957       -0.3419947839        4.0115484441
 H       -12.4439931194        0.5091923912        6.1134076667
 H       -13.7409977710        1.6308838978        5.6377895053
 H       -11.5176418798        4.3252499071        2.4374518767
 H       -10.1624236929        3.7878312992        3.0480609750
 H        -9.7470013921        6.5327559353        3.4880915755
 H       -10.6097343738        6.2626590679        1.8367294254
 H        -6.6989991470        8.8206013833        0.3986678337
 H        -8.3036767253        9.3657919494        0.6007336062
 H        -7.9113621063       10.0952166311       -1.4592632270
 H        -8.7213003231        8.7719135556       -1.9156998451
 H        -4.9834455093        5.6864489540       -5.2373708713
 H        -6.4609484861        6.2639726285       -5.9017646757
 H        -5.9524410446        3.3682030813       -4.7497643525
 H        -5.9797999575        4.1018278540       -6.4083340140
 H        -9.2485270525        0.3635962102       -3.2996133027
 H       -10.8245096454        1.3157545184       -3.0051714060
 H       -10.4484241546        0.9922733588       -0.7896619223
 H        -9.7560857513        2.3473561906       -1.0401651518
 H        -6.1674425706       -3.1122510589       -1.0434511421
 H        -5.5088713627       -1.5318632937       -0.8406636130
 H        -5.8639289124       -2.3014531936       -2.5172030287
 H        -7.6027248506       -1.6606504542        1.7234725769
 H        -8.3995713297       -0.1225762800        1.6710696531
 H        -6.6698001003       -0.2543437634        1.2957046363
 H        -9.6671784387       -2.2608482611        0.3678719658
 H       -10.2694147843       -1.1853872091       -0.8928141912
 H        -9.9469997117       -0.6111081146        0.6753989051
 H       -10.0446186622        2.4505823819       -6.5368714298
 H       -10.4042564164        1.0837274526       -5.3613103002
 H        -9.1543565754        0.8868013427       -6.5746480088
 H        -6.5333221932        1.2660508871       -5.9833002942
 H        -7.4627711155        0.0268863879       -5.0596134614
 H        -6.6174314324        1.2849886661       -4.1595594143
 H        -8.3417141602        9.2842441457       -4.5796321771
 H        -8.9488040219        7.7968657649       -3.9084566368
 H        -8.0279291188        7.9082124232       -5.3823848292
 H        -5.4574281726        9.6499925082       -4.1212134051
 H        -5.7811308436        8.7392682111       -5.5602061858
 H        -4.4136266503        8.3158406987       -4.3495269755
 H        -8.0935578048        7.2977200455        3.4533080899
 H        -8.6427847845        8.4097532754        2.3028413509
 H        -6.8183050873        8.2104925716        2.5812658904
 H        -6.1192231182        5.1312611849        0.8648249007
 H        -5.9808443190        5.6985987148        2.5199614155
 H        -5.4803430498        6.8850732636        1.2411639478
 H       -12.7849461083        5.2205896164        6.7468989229
 H       -13.0787586153        3.5445333663        7.1460055079
 H       -13.9294009545        4.0127834247        5.7957130209
 H       -10.5153026535        5.0310230919        7.3662583114
 H        -9.7009046569        4.6288235607        6.0415413842
 H       -10.1552603075        3.3187852626        7.1938458725
 H       -16.2808747372       -1.1998643037        2.3182989688
 H       -14.5982646567       -1.3537375397        2.9060007202
 H       -14.7457861208       -0.5375332226        1.3860343561
 H       -16.9492660522        2.5555877921        2.5286838409
 H       -17.7382947301        0.9711043012        2.4228928368
 H       -16.8326872870        1.5106980362        1.1601996730
 Na       -7.7234958795        4.0739755925       -0.7129225261
