117

 C       -16.7717725994        1.5931751311        5.3626106219
 C       -16.2817500143        0.3765641557        4.4736513035
 O       -16.0662896417       -0.7002614780        4.9424891353
 C       -15.6569961036        0.7073302212        2.9354415461
 C       -14.2470220342        1.4635706287        3.1587301622
 O       -13.9801589025        2.6149964365        3.0049594037
 C       -13.0873885933        0.7713928792        4.0928479325
 C       -12.8334743985        1.5261463360        5.3983076879
 C       -11.6319750819        2.5154021675        5.1580684019
 O       -10.6546167518        2.1335754551        4.6620875473
 C       -11.7370066308        3.9823613767        5.6642427482
 C       -11.4366786183        4.9806681017        4.4478759626
 O       -11.8609162328        6.1195278232        4.5400983057
 C       -10.6936058430        4.6387900701        3.1194361167
 C        -9.9174332672        5.8844532363        2.6134040329
 C        -8.7325156930        5.5300110549        1.6697781689
 O        -8.6704718134        4.3879961119        1.2844317393
 C        -7.6767027617        6.5558139578        1.5115577916
 C        -7.9427200630        7.1164494438       -0.0689315466
 O        -8.3783219525        6.4293493485       -0.9442761077
 C        -7.5695829178        8.6875888038       -0.2136640699
 C        -7.7119616733        9.0246363464       -1.6791288403
 C        -6.4849884247        8.3128029774       -2.3136271599
 O        -5.4881166436        8.1878553384       -1.6300747922
 C        -6.5735281840        7.8654909640       -3.8032823339
 C        -6.4480891709        6.3311614760       -3.7501753163
 O        -6.7434075963        5.6111323727       -2.7315032202
 C        -6.0990823468        5.6070164113       -5.1096814852
 C        -6.5974053548        4.1314858493       -5.3544412349
 C        -8.0563892368        3.5875611821       -5.5445825536
 O        -8.9185424823        4.2244345934       -6.0703081307
 C        -8.4037727316        2.1510294012       -5.0331567025
 C        -8.7999630768        2.3184098595       -3.4789402881
 O        -8.3072134896        3.2734861157       -2.9673108830
 C        -9.6549124222        1.3282570798       -2.8660233408
 C        -9.7243006934        1.4621264899       -1.3364011387
 C        -8.3500522639        0.9298450907       -0.7745434013
 O        -7.3522357568        1.5963449467       -0.5929124991
 C        -8.3549956834       -0.5200505161       -0.2663258917
 C        -7.5797976068       -1.5937447239       -1.3408801399
 O        -8.1636501950       -1.7797300747       -2.4022996977
 C        -6.1096990844       -2.1500062660       -1.0597970844
 C        -7.7567011581       -0.5640520715        1.2184839363
 C        -9.7449028953       -1.3297630269       -0.1454689277
 C        -9.6163842243        1.4876154777       -5.7174733500
 C        -7.2500550371        1.2527466345       -4.9933894744
 C        -7.8747194487        8.1427952151       -4.5692950769
 C        -5.5082075763        8.5528447035       -4.5514860059
 C        -7.7617629630        7.8204139971        2.5223986151
 C        -6.2062751959        5.9683404223        1.4282671657
 C       -12.9880518310        4.4540104439        6.5339058790
 C       -10.4518809397        4.0167454562        6.6121885812
 C       -15.1660780572       -0.6955445410        2.2717296370
 C       -16.6301649159        1.5767797513        2.1325129608
 H       -16.2426607237        2.4710693589        5.1771024152
 H       -16.3873731865        1.5352961499        6.3853430282
 H       -17.8625967078        1.7432868590        5.1421926477
 H       -12.1311166367        0.6741388685        3.5962982563
 H       -13.5277151577       -0.2870664011        4.3618522379
 H       -12.4008576918        0.8086198715        6.0014824220
 H       -13.7979080355        1.8469875515        5.8760923605
 H       -11.2519512703        4.1202942006        2.4184715687
 H        -9.8961283420        3.8550255393        3.2249434798
 H        -9.4194788545        6.3954117755        3.4591266480
 H       -10.5766813685        6.4397642686        2.1724395346
 H        -6.5113672609        8.8681466158        0.1429499414
 H        -8.2159149231        9.3249701787        0.4383838043
 H        -7.7724817621       10.0587881905       -1.8306300837
 H        -8.6884628420        8.7659815261       -2.1884478850
 H        -4.9617744566        5.4784953941       -5.1504143523
 H        -6.2478566048        6.3262030741       -5.8562874308
 H        -6.2967977643        3.5726606779       -4.4936851016
 H        -5.9716443716        3.7728418975       -6.1248091543
 H        -9.2859197766        0.3748935577       -3.2103955718
 H       -10.7283640761        1.4951938275       -3.2206449001
 H       -10.5556550023        0.9513532328       -0.8044905592
 H       -10.0567374114        2.4085337053       -0.9989698409
 H        -6.2732534745       -3.1436237533       -0.5539217081
 H        -5.6166570229       -1.6217359405       -0.3034921133
 H        -5.6172242825       -2.4350296892       -1.9986430219
 H        -7.9572732211       -1.5598876917        1.6585214293
 H        -8.1463912054        0.0807521967        1.9888650362
 H        -6.6487882088       -0.5722837786        1.2872821329
 H        -9.4210660069       -2.2986432922        0.2918660779
 H       -10.1753191516       -1.5271051026       -1.0859488739
 H       -10.4610876982       -0.7585431480        0.4853609518
 H       -10.2222693144        2.3053612311       -5.9416338825
 H       -10.0977414680        0.7829550421       -5.1370395208
 H        -9.3122721975        0.9502896656       -6.6625989021
 H        -6.8150577539        1.1924405720       -5.9929812327
 H        -7.6401215481        0.2717283586       -4.6978754043
 H        -6.6158165069        1.6504221327       -4.1817096836
 H        -8.1925705708        9.1600167365       -4.6849534478
 H        -8.8420500890        7.6574814924       -4.3584814391
 H        -7.6824428341        7.9515110980       -5.6305898477
 H        -5.3558727648        9.6376618289       -4.3437449061
 H        -5.8366577038        8.2884320149       -5.5695792760
 H        -4.5777906316        8.0736645517       -4.2448975465
 H        -7.6082337147        7.4744065124        3.5254804349
 H        -8.7055564581        8.3368009925        2.5246980407
 H        -6.8690550105        8.3465004143        2.2371679282
 H        -6.3177155799        5.0328019317        0.9395966618
 H        -5.6436680152        5.7047322039        2.4060360506
 H        -5.5815294327        6.6746270084        0.8234694580
 H       -12.6748914628        5.3957496667        7.0489433875
 H       -13.3258064667        3.6734123835        7.2215943606
 H       -13.8097160254        4.4695362353        5.7861502717
 H       -10.1729813946        5.0045690642        7.1319202100
 H        -9.5614390522        3.9279090849        5.9834229753
 H       -10.5454212756        3.2735304845        7.3502037659
 H       -15.9190815447       -1.4257725436        2.0531867887
 H       -14.4584277250       -1.1470686967        3.0215783604
 H       -14.4131723588       -0.4466316628        1.4656036742
 H       -16.7475211874        2.6183331008        2.3028059784
 H       -17.6111962750        1.2234834638        2.3048719773
 H       -16.6011247133        1.6023420527        1.0702177190
 Na       -7.6862732406        3.9988661717       -0.7905528326
