117

 C       -16.8426802531        1.6294443802        5.2173010097
 C       -16.1543896749        0.4331760997        4.4119019692
 O       -16.0411891350       -0.6917497084        4.8634875364
 C       -15.4629188036        0.7574545897        2.9584294222
 C       -14.0463054070        1.4369475128        3.2120483911
 O       -13.9859354253        2.6068928525        2.8268386427
 C       -13.2712859020        0.8296416359        4.3796841444
 C       -12.9624363850        1.8534979635        5.5041759476
 C       -11.7127601500        2.6004980308        5.2259114747
 O       -10.8267377240        2.0553022951        4.4950979354
 C       -11.5384009245        4.0839685971        5.7321634637
 C       -11.3569917211        5.0874494461        4.5114208427
 O       -12.0514444518        6.0951742159        4.4695229989
 C       -10.4573652456        4.6203298462        3.3984529242
 C        -9.8303989182        5.7630668203        2.6031878296
 C        -8.6507615437        5.4101185173        1.7962801017
 O        -8.5477536278        4.3084839101        1.2113243439
 C        -7.7022716891        6.5274476640        1.3819606025
 C        -8.2550022920        7.2025919646       -0.0479163549
 O        -8.7291196411        6.4531784455       -0.8738703833
 C        -8.0414786240        8.7899502393       -0.3433254965
 C        -7.6079640746        9.0095101661       -1.8680777703
 C        -6.4395705062        8.2485129045       -2.5171363266
 O        -5.3667549255        7.9906128149       -1.9703753997
 C        -6.3689149895        7.7058623520       -3.9248890088
 C        -6.4465932195        6.1327971263       -3.9068172660
 O        -6.6696697533        5.5981629711       -2.8847354716
 C        -6.4592389079        5.4214376083       -5.2734431470
 C        -6.7035295701        3.9141499429       -5.0460346985
 C        -8.0736919452        3.4640739011       -5.4567047834
 O        -8.8158643364        4.2942708910       -5.9322033632
 C        -8.4441519967        2.0609175156       -4.9403707487
 C        -8.8370296757        2.3051953443       -3.4724212305
 O        -8.3569872242        3.2715259394       -2.8877480047
 C        -9.8285605847        1.3900788582       -2.6959610160
 C        -9.7769060536        1.5883285280       -1.1826346095
 C        -8.5166414995        0.8713027687       -0.6319648237
 O        -7.4168314286        1.3974143891       -0.7943333780
 C        -8.5010845008       -0.5134750099       -0.0651412583
 C        -7.6044301524       -1.5151398546       -0.9887739818
 O        -7.9343525241       -1.7188858937       -2.1202988110
 C        -6.3230977974       -2.1761428562       -0.3254079512
 C        -7.9283301834       -0.4374277142        1.4114379167
 C        -9.9895865800       -1.1253871795       -0.0621058141
 C        -9.5774882317        1.5055046622       -5.8461409939
 C        -7.2067860947        1.0789727038       -5.0415731241
 C        -7.6462167668        8.2087135813       -4.6455812112
 C        -5.0241757265        8.1594682577       -4.7778813250
 C        -7.5369234893        7.7887359643        2.4316446461
 C        -6.2429528048        5.9893735057        1.0782998596
 C       -12.7927472691        4.5526075137        6.5442377915
 C       -10.2115383709        4.1064638485        6.6286111103
 C       -15.2460825342       -0.6519852380        2.2370485843
 C       -16.3593212063        1.7492711348        2.0479712727
 H       -16.7628095107        2.7056832250        4.7143411785
 H       -16.1405850654        1.9466724804        5.9816514712
 H       -17.8560949185        1.3268728108        5.4669073695
 H       -12.3181696884        0.3760870655        3.9362161881
 H       -13.9003763338        0.1165850041        4.7332519672
 H       -12.7174199635        1.2179647993        6.4381038518
 H       -13.7504264526        2.5298216516        5.7026843645
 H       -11.2113312156        4.0257402302        2.7377227460
 H        -9.6811410911        3.8535538349        3.5588368946
 H        -9.4320676451        6.5509391968        3.2957962501
 H       -10.6961579538        6.2414634640        1.7625284341
 H        -7.2935558557        9.1632547601        0.3588339398
 H        -8.9899150584        9.2862350940       -0.0703608968
 H        -7.3886085791       10.1094004090       -2.1716785059
 H        -8.4707318802        8.9130581022       -2.5269122215
 H        -5.5462374690        5.5879907166       -5.8030108155
 H        -7.1905612384        6.0117356404       -5.9261466507
 H        -6.3535147520        3.5859790740       -4.0661887670
 H        -6.0097743390        3.3737275904       -5.7443547569
 H        -9.6153975893        0.3125893028       -2.7830282574
 H       -10.8484774872        1.5903976220       -2.9761050247
 H       -10.6674282382        1.1431240531       -0.7182313271
 H       -10.0103572065        2.5886194068       -0.7166895531
 H        -6.3434300168       -2.7434933775        0.5868088258
 H        -5.9099282525       -1.1977333013        0.0252607066
 H        -5.6779684571       -2.6459151757       -1.0512190251
 H        -7.6499546496       -1.4297543272        1.8446175553
 H        -8.6043681450       -0.0407249335        2.1355491575
 H        -7.0795901985        0.1670799136        1.4948166651
 H        -9.8799839024       -2.2133459466        0.1801569705
 H       -10.4030650597       -1.0900870785       -1.1361954218
 H       -10.6485435313       -0.4544555890        0.5263750026
 H       -10.6147665801        1.6424735553       -5.4040689484
 H        -9.2900070223        0.4472505717       -6.0352786508
 H        -9.4558860695        2.0398425039       -6.7589697799
 H        -7.1050068239        0.9222605532       -6.1301989910
 H        -7.4170205163        0.1532741056       -4.5193019540
 H        -6.3900853073        1.5925307057       -4.5998336288
 H        -7.8647555997        9.3354323237       -4.6760686008
 H        -8.5845461645        7.8684538131       -4.3113313983
 H        -7.6422324651        7.7881799171       -5.6504748222
 H        -5.0913715072        9.1505678638       -5.1818027611
 H        -4.9467454701        7.3989079220       -5.5397051836
 H        -4.2041098547        8.2253295110       -4.0273552012
 H        -7.1304677205        7.3886667135        3.4285978934
 H        -8.6132814301        8.1939232011        2.5330432423
 H        -6.8425267567        8.6020491452        2.1087020003
 H        -6.3726351677        5.0636808378        0.4837851747
 H        -5.7952519731        5.6824516659        1.9430203165
 H        -5.6040809898        6.7651905208        0.6659797108
 H       -12.4798698587        5.5592459618        6.9238554562
 H       -12.9132489763        3.9292641399        7.4479847017
 H       -13.6951756919        4.5552956446        5.9695420136
 H        -9.6995681588        5.0313149899        6.5376390703
 H        -9.4284555131        3.4088380340        6.2911642670
 H       -10.4047251972        4.0442424466        7.7543285240
 H       -16.2308484512       -0.9427765664        1.8643316785
 H       -14.9629909353       -1.3841273600        2.9200370155
 H       -14.4973478600       -0.5942183883        1.5147029757
 H       -16.5113657885        2.7361710764        2.6383814952
 H       -17.3856060975        1.6197659800        1.7851748640
 H       -15.8728573091        2.2238647637        1.1785215287
 Na       -7.5957389646        4.0748451174       -1.0255271854
