117

 C       -17.0315349778        1.6788273994        5.0372973605
 C       -16.3087449602        0.4733495689        4.3267179483
 O       -16.1142605444       -0.6649329388        4.7569058946
 C       -15.5431121375        0.9713869450        2.9744340400
 C       -14.1242078257        1.4310214581        3.3217632726
 O       -13.5998294548        2.3590564179        2.7412701868
 C       -13.3442594559        0.7410420102        4.6737971482
 C       -13.0069279852        1.9081207080        5.6342697883
 C       -11.7376503358        2.6244401327        5.2829479248
 O       -10.9283005020        2.1786611261        4.5861513597
 C       -11.4464344453        4.1495464914        5.8505044657
 C       -11.2542215977        5.0330269755        4.4944154198
 O       -11.9351245616        5.9863316761        4.2767766690
 C       -10.0773139907        4.6054571412        3.5422056498
 C        -9.8084357276        5.8222195854        2.6719602120
 C        -8.5359552665        5.5457751840        1.6108755013
 O        -8.4836073473        4.4730238198        1.0809113692
 C        -7.5769336490        6.6910557559        1.1404866584
 C        -8.2739354368        7.1129528895       -0.2152137029
 O        -8.7932637662        6.2551120042       -0.8933905044
 C        -7.9985661900        8.6220030083       -0.6671446801
 C        -7.6669191982        8.8417861174       -2.0165170907
 C        -6.3321488870        8.1259348893       -2.4633715062
 O        -5.3608578038        8.0255143252       -1.8103278409
 C        -6.3492745992        7.7334096512       -4.0171198840
 C        -6.5654263229        6.1597394400       -4.0148022933
 O        -6.4657214732        5.5471683747       -2.9278894918
 C        -6.5601509493        5.2606839745       -5.3458660342
 C        -6.5929284729        3.7465558228       -5.3200710860
 C        -7.9588279494        3.2428750007       -5.4272870801
 O        -8.7667756505        4.0426441144       -5.8824964937
 C        -8.5329994372        1.7959526926       -4.9298001257
 C        -9.1181661692        2.1737155846       -3.4869316830
 O        -8.5753772265        3.1475802719       -2.9639202274
 C       -10.0360442393        1.3066307036       -2.7526802700
 C        -9.8767479915        1.5114519504       -1.2353106129
 C        -8.5774858683        0.9773431449       -0.5495668376
 O        -7.5340785116        1.6164961976       -0.5777308423
 C        -8.6626858640       -0.4302108710        0.2065700416
 C        -7.6427580275       -1.4379137954       -0.5914070897
 O        -7.7557790750       -1.4486710658       -1.8145317924
 C        -6.4575274883       -2.1090981856        0.1351151402
 C        -8.2901892858       -0.2399170630        1.6554108818
 C       -10.0096222445       -1.1012654913        0.1239187855
 C        -9.7870167484        1.5115797373       -5.8303025672
 C        -7.4403434049        0.6602087022       -4.9196877835
 C        -7.2612463760        8.3655703337       -5.0568163824
 C        -4.9478741672        7.9847114715       -4.6184130754
 C        -7.4221610634        7.6326028205        2.3316682963
 C        -6.0999911841        6.2713288715        0.7200944524
 C       -12.4740342431        4.7053859515        6.8187306597
 C       -10.1248709519        4.2644840632        6.4329002122
 C       -15.2632918410       -0.3729657282        2.1587685395
 C       -16.3005369601        1.7487789765        1.9083240938
 H       -17.3165818578        2.2157744159        4.2314239852
 H       -16.3489315299        2.3906678882        5.5134460512
 H       -17.8009921396        1.3055765856        5.7213119747
 H       -12.5217570703        0.2463232659        4.3208968647
 H       -14.1181373075        0.1661854887        5.3362883004
 H       -13.0114099578        1.5152042530        6.6120044681
 H       -13.8686052901        2.6757952077        5.5522388405
 H       -10.3053564167        3.7991024114        2.9054530712
 H        -9.1877144262        4.2636077412        4.1042643954
 H        -9.7318369552        6.7304927472        3.2679230779
 H       -10.5922330264        5.9455777874        2.0961094114
 H        -7.2295398732        8.8957033883        0.0584930322
 H        -8.8811123706        9.1795503714       -0.4327101891
 H        -7.6377898451        9.8097444081       -2.3694387620
 H        -8.4998153999        8.4488174154       -2.5972738022
 H        -5.6037860567        5.6351823524       -5.8325950998
 H        -7.2539100683        5.6907294308       -5.9902392986
 H        -6.2536658673        3.2959662149       -4.3293011885
 H        -5.9415988873        3.2217060286       -6.0546570902
 H        -9.9009796152        0.2473872892       -3.0277180511
 H       -11.0684286850        1.7001886538       -3.0241405810
 H       -10.7017651426        1.3878791396       -0.5928955937
 H        -9.7810944808        2.5808105632       -1.0868920823
 H        -6.7547560027       -2.3122185525        1.1754423448
 H        -5.4565447780       -1.7255776504        0.1601629964
 H        -6.4876209988       -3.0638856087       -0.4216746702
 H        -7.9785606178       -1.1455437686        2.1027656417
 H        -9.0467187487        0.1719858654        2.3776380089
 H        -7.4552190298        0.5625913131        1.8225794115
 H        -9.9182937585       -1.9794013061        0.6019614001
 H       -10.2163310569       -1.3362784912       -0.8631021632
 H       -10.7732455053       -0.4469583221        0.3608436452
 H       -10.5284969438        1.2080461551       -5.1355098797
 H        -9.5922606127        0.7342282040       -6.5854181402
 H       -10.0949243376        2.4939744724       -6.2787500800
 H        -6.9031358117        0.7693015672       -5.8128007264
 H        -8.0429776175       -0.2294441328       -4.9018157299
 H        -6.8436861725        0.7013551614       -3.9933811765
 H        -7.3868888256        9.3514338317       -4.8252876057
 H        -8.3545726263        8.0190195055       -4.8395152620
 H        -7.2580877148        8.1075778101       -6.1083412828
 H        -4.9357733664        9.0292161537       -4.9416631484
 H        -4.7604862866        7.3376768144       -5.4424038191
 H        -4.2783039331        7.9253853492       -3.8378025895
 H        -7.6081841188        7.1120842792        3.2249106160
 H        -7.9866437990        8.5296295223        2.1303370867
 H        -6.3406502430        8.0067006308        2.4548807753
 H        -6.1912351743        5.7880807354       -0.2618570305
 H        -5.5635447082        5.5868324044        1.5045145868
 H        -5.4859509478        7.1628769122        0.7262596497
 H       -12.0550136329        5.5884518529        7.1242377630
 H       -12.5166375818        4.1405704312        7.7232993629
 H       -13.4760224171        4.8017743000        6.3418022135
 H       -10.0151967307        5.3613373228        6.6185003602
 H        -9.1857088289        3.8739486339        6.0820953831
 H       -10.1552157178        3.9536808664        7.4366172106
 H       -16.1739628939       -0.8369301269        1.8440997524
 H       -14.7312674093       -1.0597610774        2.9031397315
 H       -14.5657949926       -0.1650124210        1.3138345341
 H       -17.0158473516        2.5116214122        2.0414070683
 H       -17.1102998558        1.0746872344        1.4547637853
 H       -15.7209549114        2.1734410876        1.0766091358
 Na       -7.6461014252        4.2456764977       -1.1042756069
