117

 C       -17.1916957970        1.6142682376        4.9641687194
 C       -16.3765412204        0.5379163677        4.2362450407
 O       -16.3278017556       -0.5671548488        4.7654104387
 C       -15.5051938768        0.8323577020        2.9793742985
 C       -14.1192112907        1.4831467364        3.4151393861
 O       -13.4721746119        2.2089269808        2.6848655113
 C       -13.4475554328        0.9686959446        4.6685733068
 C       -13.0292866022        1.9918902832        5.7387960176
 C       -11.7298425124        2.6315359973        5.2555104623
 O       -10.8171474742        2.0273089623        4.6138561686
 C       -11.3716982224        4.2075897581        5.8160340669
 C       -11.1993872332        5.0687344359        4.4447172447
 O       -11.9690020705        5.9760945955        4.1838564430
 C        -9.9546557169        4.7456769536        3.6116391095
 C        -9.5932307029        5.7367688459        2.5151279532
 C        -8.4349940832        5.4852678922        1.6172433828
 O        -8.4153796563        4.4097316712        1.0058100585
 C        -7.5443342195        6.6734019646        1.1938452484
 C        -8.2166687686        7.1635515666       -0.2461914360
 O        -8.7498808593        6.4395245778       -1.0670642621
 C        -7.9563291696        8.5892389187       -0.7067476145
 C        -7.8407453122        8.7696172067       -2.2648626510
 C        -6.4311274172        8.1633869545       -2.7347790804
 O        -5.6146027653        8.0569596606       -1.8202961942
 C        -6.1453824240        7.5886616760       -4.0803716771
 C        -6.3259428240        5.9695210336       -3.9429386074
 O        -6.5236401832        5.4920141004       -2.8984917425
 C        -6.3764417463        5.1810677418       -5.3779024102
 C        -6.5756126988        3.6852598004       -5.3190815496
 C        -8.1065416980        3.1859839411       -5.5450144932
 O        -8.9774685986        3.8875422690       -5.9932354993
 C        -8.6202470698        1.7718623969       -4.9393145912
 C        -8.9992623735        2.0947680642       -3.4478954282
 O        -8.6449524308        3.1745286044       -2.9733789380
 C       -10.0258487085        1.2216503791       -2.7164466479
 C       -10.0771906509        1.5271654147       -1.2055419861
 C        -8.7323608393        1.0366151666       -0.4628235231
 O        -7.7113407512        1.7005548950       -0.3541598535
 C        -8.6467847899       -0.3438485644        0.3088585354
 C        -7.6396183646       -1.2094331010       -0.4147249775
 O        -7.7344879153       -1.2887792215       -1.6006958441
 C        -6.6324807681       -2.0963380577        0.3978150341
 C        -8.2396715851       -0.0114820060        1.8236569154
 C        -9.9886015993       -1.1511738656       -0.0082081397
 C        -9.8645720660        1.4209987545       -5.8334285304
 C        -7.6780887792        0.5209416563       -4.8121600651
 C        -7.1567445626        8.3374356080       -5.0501407634
 C        -4.5974750613        7.9860201256       -4.4761400012
 C        -7.3771369814        7.8239047708        2.2816122616
 C        -6.1816105298        6.1512414568        0.6784902914
 C       -12.4156666648        4.9209845526        6.7990821334
 C        -9.9378293287        4.1289441172        6.5412414693
 C       -15.1273889138       -0.3988391815        2.1447628969
 C       -16.1632408595        1.8597743348        1.9372909403
 H       -17.9778642319        1.9973497653        4.1153740377
 H       -16.6151612398        2.5637240630        5.1907924841
 H       -17.5013758176        1.1263992647        5.8890907864
 H       -12.4785487735        0.4576009024        4.3191237934
 H       -14.1654529301        0.3795983462        5.1948812510
 H       -12.8177737138        1.3783703046        6.6020607768
 H       -13.7557793943        2.7463285885        5.9451951120
 H       -10.2075447297        3.7567084528        3.1157034579
 H        -9.1158730101        4.5779144188        4.2230276912
 H        -9.3861051497        6.6793525944        2.9651803297
 H       -10.5841922873        6.0713655360        1.8860881228
 H        -7.0092905847        8.8118345158       -0.1404940865
 H        -8.7781869948        9.2318659519       -0.2978531411
 H        -7.9062899140        9.8420377790       -2.6195980882
 H        -8.6683741816        8.2908955343       -2.7705621888
 H        -5.5869722548        5.5466286350       -5.9961394284
 H        -7.2383333512        5.6127621994       -5.9093004180
 H        -6.1261322937        3.1177465424       -4.5903443526
 H        -6.1957542705        3.2601314058       -6.2019948199
 H        -9.8166172619        0.1000450000       -2.7274407842
 H       -10.9305782084        1.4901290982       -3.1491379792
 H       -10.8768516245        1.0228744659       -0.6836222099
 H       -10.3607223479        2.6446020579       -0.9277858342
 H        -6.8180896539       -2.0999468896        1.4495521267
 H        -5.5460067036       -1.7281883464        0.2805945143
 H        -6.6126674620       -3.0739259816       -0.0917017701
 H        -8.4366258604       -0.8297428010        2.5119792175
 H        -8.8029354088        0.8575291377        2.2259305124
 H        -7.2441891770        0.3802842122        1.9842077565
 H        -9.9543728789       -2.0480687540        0.5540742399
 H       -10.0663350785       -1.4608971981       -1.0561693255
 H       -10.8374498366       -0.5375015954        0.1131329702
 H       -10.2955712037        0.5357910642       -5.4035208707
 H        -9.4240995819        1.1818957562       -6.7975615730
 H       -10.4945104465        2.2068788162       -5.8659112506
 H        -6.9921560916        0.5597815136       -5.6267254588
 H        -8.4154552149       -0.2920527986       -4.8636141869
 H        -7.1949590094        0.4631625050       -3.8196505090
 H        -7.0916464749        9.3198190412       -4.6382759778
 H        -8.2182899074        8.1557574437       -4.9148487400
 H        -7.1407703798        8.2747579483       -6.0953889452
 H        -4.5603823082        9.0730627563       -4.3206928816
 H        -4.4179842741        7.7825416413       -5.5316712621
 H        -3.8604391569        7.5114035721       -3.7861460375
 H        -7.1368230118        7.4208956655        3.2301073474
 H        -8.1207715083        8.5763284371        2.2352311358
 H        -6.4893153992        8.4368617729        2.0236184543
 H        -6.1887534598        5.5812833231       -0.3269155841
 H        -5.5908513782        5.6722850643        1.4457056466
 H        -5.6353817998        7.0983175773        0.5952467538
 H       -11.9501399318        5.7995106791        7.1942135592
 H       -12.5671599948        4.2311814881        7.6746444428
 H       -13.3895973429        5.0667162972        6.2855462166
 H        -9.5799999917        5.0627578228        6.8973252826
 H        -9.0686587530        3.5580113761        6.1728040156
 H       -10.0833613347        3.5943475879        7.5563211034
 H       -16.1122907023       -0.9058254221        1.8472421464
 H       -14.3532533477       -1.1386099172        2.4920619724
 H       -14.7785749492        0.0994993922        1.2262708936
 H       -16.6047190008        2.7787339518        2.2858625537
 H       -17.0438887938        1.5682145791        1.4383177433
 H       -15.4986263619        2.1124431966        1.1874527753
 Na       -7.7177129339        4.1620831486       -1.2061714191
