117

 C       -17.5391735598        1.9086974877        4.0503689239
 C       -16.4354842672        0.6753678325        4.0122610266
 O       -16.4518268218       -0.3875990760        4.5884708185
 C       -15.4642223155        1.0427431583        2.8876079689
 C       -14.0010052939        1.3441179671        3.5489886540
 O       -13.1630105417        1.7975128701        2.7990933107
 C       -13.8668213301        1.4847956070        5.0882213450
 C       -13.0610637304        2.5405037555        5.8198048727
 C       -11.5787562955        2.7556467033        5.4833614660
 O       -10.7452925336        2.0551542198        4.9911620698
 C       -10.8218194466        4.2953410282        5.7292648433
 C       -10.6413938435        5.0590792251        4.3653530644
 O       -11.6305013217        5.5678663626        3.8570174688
 C        -9.2021684235        5.0041696192        3.6940387536
 C        -8.9031904953        6.3483658888        2.9076268289
 C        -8.3163147825        6.0095243930        1.4606700972
 O        -8.1707708776        4.8331112696        1.1999439913
 C        -7.5550602253        6.9929683602        0.5710659057
 C        -8.2516908402        7.1078913543       -0.8425860948
 O        -8.7122206346        6.1626013980       -1.4756323322
 C        -8.1883913464        8.4980218626       -1.5203054458
 C        -7.6573458806        8.2702582709       -2.8853178398
 C        -6.1410133543        7.8888734547       -2.8359336820
 O        -5.4168123201        8.0881831379       -1.9579695890
 C        -5.7204290245        6.9676744119       -4.0581569313
 C        -6.4281237469        5.5393526833       -3.9239624430
 O        -6.5978222230        5.0652017502       -2.7604789892
 C        -6.9846348820        4.8438661090       -5.2449514053
 C        -6.9450404254        3.2736429821       -5.1662449615
 C        -8.2658589681        2.7837311851       -5.7185755834
 O        -8.7767835811        3.3842490428       -6.6080594833
 C        -9.0233294352        1.4553954767       -5.0601175573
 C        -9.3796273515        1.8568401767       -3.5989193463
 O        -9.3853759006        3.0460404995       -3.3026027449
 C        -9.6584817003        0.8921516808       -2.5246884187
 C       -10.4205956399        1.3895019225       -1.2416131177
 C        -9.2839099504        1.2070114645       -0.0536093114
 O        -8.4456453433        2.0723819872        0.0708689598
 C        -9.1659072085        0.1800486912        1.0516101440
 C        -7.7502743468       -0.5561964462        0.3111483302
 O        -7.1387377117       -0.0944349934       -0.6262583018
 C        -7.2440482292       -1.8250787930        1.0456018872
 C        -8.9443805878        0.7694559673        2.5875641696
 C       -10.2339840024       -0.9023747347        1.1621751104
 C       -10.3455688997        1.2342926700       -5.8488967886
 C        -8.0848787429        0.2527806357       -4.9146052382
 C        -6.1381874227        7.6957621102       -5.3997411911
 C        -4.1863688555        6.6368970360       -4.0444055387
 C        -7.5316536804        8.3518600157        1.2696667989
 C        -6.0466295298        6.4944745322        0.4678343839
 C       -11.7371149374        5.0833889902        6.7582105953
 C        -9.5617405787        3.8425821627        6.4555998981
 C       -15.1124820285       -0.3430968231        2.1483598457
 C       -15.8154366376        2.1510139183        1.7929362921
 H       -17.9506949499        1.8611841202        3.0096877377
 H       -16.9784730087        2.8987170009        4.1812330121
 H       -18.3253262220        2.0501206314        4.7886338807
 H       -13.4891502995        0.5747747229        5.3743873405
 H       -14.9678221656        1.6468803155        5.5081055809
 H       -13.1101968672        2.3917838590        6.8643584747
 H       -13.5510252803        3.5534831080        5.5768232557
 H        -9.1718129022        4.1083776786        2.9722594989
 H        -8.5519646428        4.9073221938        4.6387358848
 H        -8.4094022060        7.0894875701        3.4626495252
 H        -9.8569123231        6.9480113581        2.8412236769
 H        -7.4447658570        9.1635837060       -1.0077762794
 H        -9.2009282139        8.9511057624       -1.6012734841
 H        -7.8477143787        9.0332619085       -3.6867871521
 H        -8.2409509808        7.2702061839       -3.1217655930
 H        -6.2896625987        5.1736234418       -6.0796435720
 H        -7.9775755228        5.2373223985       -5.3792678039
 H        -6.8426151525        2.9164962263       -4.1660524049
 H        -6.1929934072        2.8457674876       -5.7784628650
 H        -8.8473187574        0.4709268295       -2.0519529989
 H       -10.2149683757        0.0369862985       -2.9933848701
 H       -11.3523280929        0.8635504703       -1.0951430454
 H       -10.4904101111        2.4895818929       -1.3753094388
 H        -8.0603947671       -2.5842962774        0.9092160539
 H        -7.1618808528       -1.6147394567        2.0925786265
 H        -6.2367176552       -2.1026197260        0.6557094388
 H        -8.2164287397        0.3188193920        3.1173906668
 H        -9.8692234239        0.5481118179        3.0637016775
 H        -8.8105235400        1.8752152535        2.6095936394
 H       -10.0073077689       -1.5319111736        2.0038968870
 H       -10.2956246710       -1.5056519193        0.1910677222
 H       -11.1757913304       -0.5437825598        1.6735538325
 H       -10.2471224345        1.7357465427       -6.7608319361
 H       -11.1185399450        1.7232708095       -5.2554848098
 H       -10.5593076753        0.1940800865       -5.9544584610
 H        -7.2909715614        0.3336295859       -5.6506424795
 H        -8.6360395989       -0.7058719850       -4.9797427696
 H        -7.6129981550        0.3594258732       -3.8883443785
 H        -5.8591343543        8.6688896628       -5.3449165790
 H        -7.1985921937        7.5749397320       -5.3650433839
 H        -5.6698949331        7.4444592121       -6.2983539585
 H        -3.7148755386        7.2373643606       -4.9018073922
 H        -3.9056136380        5.5660726732       -4.2147676065
 H        -3.8260390363        6.8717160876       -3.0517587979
 H        -6.8693647670        8.4858000097        2.1172164848
 H        -8.4586372363        8.5524612740        1.8039609241
 H        -7.2484570524        9.3182340586        0.6827914608
 H        -6.0102488605        6.0159864876       -0.4894826914
 H        -5.9222456725        5.6911006519        1.2673590994
 H        -5.3280519268        7.2488868961        0.4340257458
 H       -11.2201890035        5.9313710309        7.1427396000
 H       -11.9576306883        4.3479752863        7.5669903994
 H       -12.6191929507        5.5990452895        6.2214878426
 H        -8.9208915353        4.7800448271        6.6395975877
 H        -8.8318029293        3.0814949824        6.1246535550
 H        -9.7287959854        3.6795440447        7.4756683296
 H       -15.7842541726       -0.6356051101        1.3518084573
 H       -15.2112485089       -0.9779205818        3.0759895136
 H       -14.0679925477       -0.4727456920        1.7128898912
 H       -16.0497870664        3.1330898530        2.1710173215
 H       -16.6632636534        1.8201968331        1.1136301551
 H       -14.9627882131        2.4015632662        1.1844697450
 Na       -7.9153738672        3.7438385942       -1.4513714442
