117

 C       -17.4826516045        1.9032159150        3.8560680749
 C       -16.3545067731        0.9078726019        3.8977931887
 O       -16.3122794369        0.0001365075        4.7166090272
 C       -15.2768084088        1.1918265276        2.8055235046
 C       -13.8640787578        1.6027257200        3.5231141176
 O       -12.9507569369        1.7364199884        2.7472216351
 C       -13.8670771752        1.7901553452        5.0789944233
 C       -13.1220085978        3.0644276991        5.3852545609
 C       -11.6481933483        2.9328201355        5.3558118723
 O       -11.0935793497        1.8952961996        5.0652091438
 C       -10.7204217524        4.1090714432        5.7069590221
 C       -10.4489284663        4.8635570505        4.3195626372
 O       -11.3182121984        5.6072949502        3.9429322527
 C        -9.0483335395        4.9676563351        3.6934581662
 C        -8.9469165318        6.2701214962        2.8657241173
 C        -8.2871868821        6.0440278919        1.4156147566
 O        -8.4259289471        4.9452117784        0.9478786511
 C        -7.4761179147        7.1907024134        0.6586064719
 C        -8.2527413805        7.2178545042       -0.7523989232
 O        -8.9811930982        6.3054338193       -1.1976846919
 C        -8.2227160481        8.4330930535       -1.6950811558
 C        -7.6221201305        7.8930779665       -3.0297671213
 C        -6.0510533383        7.9129657045       -3.1938197985
 O        -5.2103744064        8.4559052783       -2.5641847358
 C        -5.4032792918        6.7133108142       -4.2580058817
 C        -6.2719614292        5.4268026062       -3.9762525115
 O        -6.2719105949        4.8941153559       -2.8677979312
 C        -7.0547253156        4.6301635766       -5.1327149203
 C        -7.1641532465        3.0956533611       -4.9769273678
 C        -8.4824906253        2.5664919010       -5.7229715463
 O        -8.7801595556        2.7817127951       -6.8564376238
 C        -9.2724253225        1.3151673319       -4.9926804698
 C        -9.4683973749        1.7334678872       -3.4857226778
 O        -9.5279350384        2.9133659502       -3.1773135967
 C        -9.5073485649        0.5294914805       -2.4685771447
 C       -10.3846612683        0.9675209078       -1.2009358894
 C        -9.4860938037        1.3466055717        0.1354205317
 O        -8.8284585795        2.3757978216        0.1595120186
 C        -9.2197799149        0.3101858090        1.1826793330
 C        -7.8007198568       -0.4882018062        0.7996553352
 O        -7.0520353007       -0.0070071841       -0.0193602641
 C        -7.6436516660       -1.8046688373        1.5643358585
 C        -8.9768517244        0.9405590116        2.5572062781
 C       -10.5100330253       -0.5341275953        1.2157244014
 C       -10.6788435247        1.0549013581       -5.4915718653
 C        -8.3234537817        0.0488833272       -5.1213453055
 C        -5.3474353930        7.0513445221       -5.7546397645
 C        -3.9825800594        6.3139234623       -3.8085121112
 C        -7.8105491420        8.5176821420        1.2975875767
 C        -6.0056107054        6.8717521675        0.3748213411
 C       -11.4551543002        5.1354330033        6.6177955095
 C        -9.2586860852        3.6731927003        6.3086092554
 C       -14.8894654269       -0.1740568102        2.3863328710
 C       -15.5013910995        2.1214076915        1.5708673282
 H       -17.5926685568        2.6187039669        3.0135048875
 H       -17.3665489853        2.2027043682        4.9589966573
 H       -18.5197282272        1.4984383456        3.9113300038
 H       -13.5145152455        0.9661865612        5.6822547915
 H       -14.9635953733        2.0269352955        5.3623813737
 H       -13.4809645643        3.4624849313        6.3246785066
 H       -13.3104004272        3.8673199521        4.6866297306
 H        -8.7538194784        4.1571069015        3.1512174168
 H        -8.4516213865        4.9888668244        4.6875608279
 H        -8.5155244506        7.0750002699        3.5967790625
 H       -10.0418526603        6.8219513487        2.8089596629
 H        -7.7155063414        9.3584750047       -1.4385709018
 H        -9.2890956847        8.5745499314       -1.9334093782
 H        -8.0492171021        8.4520059387       -3.8432178830
 H        -7.8967201885        6.8509023397       -3.0576114711
 H        -6.3380266085        4.7933406107       -5.9001140880
 H        -8.0636735431        5.0429124666       -5.3639571616
 H        -7.3483368491        2.7934096041       -3.9510152950
 H        -6.3000429636        2.5619021113       -5.3754118713
 H        -8.4728177129        0.0956509822       -2.2597184806
 H        -9.9903304629       -0.3914534736       -2.9159846422
 H       -11.1476806260        0.1153884998       -1.1295427799
 H       -10.8022360723        1.9264316777       -1.5831264332
 H        -7.4670530467       -2.6657127006        0.8760625947
 H        -8.4024749490       -1.8174550739        2.2725352919
 H        -6.7460255927       -1.6390683064        2.1782927940
 H        -9.2721910446        0.2546335097        3.3429125190
 H        -9.5795604143        1.8870884863        2.6983051367
 H        -7.8285274865        1.2068428363        2.6481384687
 H       -10.5785021205       -1.0763092147        2.0928236172
 H       -10.6062009346       -1.2440399241        0.4549914770
 H       -11.3365029886        0.1131732830        1.3873654843
 H       -11.2332181990        1.9642246905       -5.3739613275
 H       -11.0944638996        0.2085908532       -4.8999034421
 H       -10.6355337632        0.7791679340       -6.5960105922
 H        -8.5282198099       -0.4759254237       -6.0626732054
 H        -8.4169574557       -0.6759202034       -4.3497427203
 H        -7.3167457277        0.4292491147       -5.0681426086
 H        -4.6520685072        7.7997998716       -6.0140952552
 H        -6.4285929722        7.2641041312       -6.1071404938
 H        -4.8867526620        6.1579391562       -6.2791874063
 H        -3.2111487354        6.3792915383       -4.5800840776
 H        -4.0212422333        5.2860110709       -3.5544410003
 H        -3.7056548340        6.8130232912       -2.9395699687
 H        -7.7464152592        8.6016951463        2.3542055525
 H        -8.7383153563        8.9399196677        1.1625198244
 H        -7.0339606621        9.2642800484        1.0734381803
 H        -6.0279746655        6.1300896019       -0.4272345521
 H        -5.4211160119        6.3828136545        1.2491507277
 H        -5.6563491989        7.7968106778       -0.0597427436
 H       -10.9477760151        6.0783628188        6.7987375689
 H       -11.6627943121        4.6392742381        7.5140559499
 H       -12.4249723939        5.3947686673        6.1400149785
 H        -8.5711046866        4.5292854363        6.5618420562
 H        -8.5960839854        3.0354936867        5.7097070157
 H        -9.2831349437        3.1257030741        7.1729491074
 H       -15.7245143313       -0.7737658990        2.2193817365
 H       -14.3789651389       -0.6135170002        3.2381834783
 H       -14.1684549936       -0.1604140893        1.5735449497
 H       -15.6484586648        3.1453866811        1.6784140503
 H       -16.2177739713        1.6864413158        0.8216867748
 H       -14.6266862650        2.1274579925        0.9598646350
 Na       -8.4601936264        4.1506112031       -1.3117488380
