117

 C       -17.5653448997        2.0341556173        3.8316643912
 C       -16.3300249978        1.0483222178        3.8126202546
 O       -16.1856738351        0.1490741749        4.6386603079
 C       -15.1835100759        1.0340999080        2.7042254958
 C       -13.9272521072        1.7190592509        3.4871557364
 O       -12.9069273014        1.8280832332        2.7758116048
 C       -13.8596403914        2.0102710624        4.9702527641
 C       -13.1463306348        3.3217582905        5.2057492087
 C       -11.5260857968        2.9566073449        5.2968757222
 O       -11.1491451146        1.8235257543        5.1278511927
 C       -10.5606329461        4.1343726326        5.6813042292
 C       -10.3220756598        5.0774924488        4.4289112310
 O       -11.2781216218        5.5728854040        3.8665065678
 C        -8.9654035147        5.0047594213        3.6154330614
 C        -8.8613142752        6.2550374831        2.7732910783
 C        -8.2277698200        6.0228237598        1.3839475176
 O        -8.3721382527        4.9102810160        0.8817259602
 C        -7.6442378336        7.2418161170        0.5802310478
 C        -8.3898086198        7.3276075908       -0.8603877427
 O        -9.1973783089        6.4753671682       -1.2539112353
 C        -7.9661123991        8.4588922060       -1.7223132261
 C        -7.5295881194        7.7766533944       -3.1543822752
 C        -5.9166624076        7.6497908720       -3.3278152823
 O        -5.3278532073        8.5871371150       -2.8061352071
 C        -5.3977554552        6.4564011806       -4.2463144433
 C        -6.2112898538        5.2271570438       -4.0390243848
 O        -6.2375063290        4.8347134561       -2.8205509568
 C        -7.0742046361        4.6408645038       -5.2427257402
 C        -7.2975059295        3.1618610753       -4.9622062230
 C        -8.4660114031        2.4606462865       -5.7571078213
 O        -8.7019647684        2.7340582956       -6.8917475722
 C        -9.2334367392        1.2756678435       -4.9304675327
 C        -9.3661236271        1.5574552394       -3.3951363145
 O        -9.6355879980        2.7121642333       -3.0319874682
 C        -9.5180865830        0.4801990338       -2.3601345484
 C       -10.2980654152        0.9936753584       -1.1242529660
 C        -9.4066475855        1.3513230187        0.0185606506
 O        -8.9924906016        2.4904275796        0.1083523426
 C        -9.2624366451        0.2883534911        1.1387533099
 C        -7.9448235851       -0.4404168755        0.8991305407
 O        -7.0175576112       -0.1140999812        0.1821369705
 C        -7.7395021351       -1.7264124387        1.7808259452
 C        -9.0017431024        0.9286644690        2.6245989547
 C       -10.6940665048       -0.4274099984        1.3848719660
 C       -10.7483155602        1.1040668427       -5.3875825349
 C        -8.4025843606        0.0264906025       -5.1175257388
 C        -5.2021509681        6.8361627093       -5.8007320595
 C        -4.0230724142        6.1841414157       -3.6740695444
 C        -7.8498632391        8.5983379727        1.2215576447
 C        -6.0737423067        7.0154193648        0.4604319532
 C       -11.2438236980        5.1132969183        6.7654780290
 C        -9.3912641317        3.5502466440        6.2928939889
 C       -14.7979363902       -0.4500588460        2.3862391275
 C       -15.3915422328        2.0948147209        1.7126693639
 H       -17.6025134299        2.8413482793        2.9398069367
 H       -17.8388625126        2.2760926477        4.8943834757
 H       -18.5044370146        1.5362580469        3.4869052986
 H       -13.1264027091        1.3249186266        5.2358636320
 H       -14.7816738858        1.7570892435        5.6322280940
 H       -13.4622290269        3.7357409830        6.0836642658
 H       -13.1362078199        4.2074442530        4.5412099302
 H        -9.0509965666        4.0200083552        2.9459937630
 H        -8.1920542728        4.7685343710        4.3683786817
 H        -8.6518685007        7.0673812247        3.3803753981
 H       -10.0170389765        6.6287935892        2.4881925042
 H        -7.0488162473        9.0707893203       -1.4624043509
 H        -8.8302999545        9.1170866669       -1.9827449827
 H        -7.9143370392        8.5252800359       -3.8637269043
 H        -8.0017840256        6.7404735483       -3.1942070504
 H        -6.5034332309        4.8087815120       -6.2230594579
 H        -7.9471065967        5.2306362715       -5.1620325927
 H        -7.4225085587        2.9411980742       -3.9740150347
 H        -6.4460306061        2.7328244197       -5.3257478835
 H        -8.5616495426        0.0696482744       -2.2032427265
 H       -10.0368590229       -0.4644234232       -2.7073051331
 H       -10.9542618963        0.1826944861       -0.9005551864
 H       -10.7971896154        1.9826530015       -1.5271620340
 H        -7.2654728635       -2.3979893961        1.0780782105
 H        -8.6417242730       -1.9927256526        2.3097979393
 H        -6.9908482744       -1.5247650449        2.5557236481
 H        -9.4572569844        0.3826139285        3.4416863700
 H        -9.4895837077        1.9323691490        2.5460003094
 H        -7.9214923745        1.1075813621        2.7801496326
 H       -10.6951961437       -0.8620252945        2.3470758694
 H       -10.7769704664       -1.4027781923        0.8501365947
 H       -11.5677351662        0.2084899330        1.3160295441
 H       -11.3828182297        1.6099544157       -4.6801073647
 H       -10.9410472683        0.0242774312       -5.4039080614
 H       -10.8871045589        1.5371074662       -6.3021618736
 H        -8.7749448511       -0.4696333077       -5.9559255025
 H        -8.3924782531       -0.7198545320       -4.3164459731
 H        -7.3320664151        0.3066577522       -5.2706017392
 H        -4.4268421845        7.6043179576       -5.9265845298
 H        -6.0745506494        7.1257671690       -6.2756745966
 H        -4.8641392214        5.9151396671       -6.2390462818
 H        -3.3300486513        6.2110032202       -4.5277082378
 H        -3.9268861543        5.1877469748       -3.3263146754
 H        -3.6754343741        6.8621804341       -2.9538099849
 H        -7.3628092687        8.6635432273        2.1697638685
 H        -8.7671515842        9.0890383904        1.4481404509
 H        -7.1519701663        9.3692481693        0.7946163637
 H        -5.7865728437        5.9163100413        0.3739791530
 H        -5.6053231311        7.3706084689        1.4114295185
 H        -5.8458436844        7.6159989697       -0.4171717671
 H       -10.8017365492        6.0124107978        7.0124488793
 H       -11.5918287336        4.6067864536        7.6878091922
 H       -12.1472038437        5.2595012399        6.1319109840
 H        -8.5430368792        4.2273630835        6.4578966676
 H        -8.8583350000        2.7033267508        5.8105483486
 H        -9.6251451650        3.0643882756        7.2316198877
 H       -15.6022373025       -0.9585577510        1.8326528285
 H       -14.7364788502       -1.0252046553        3.3498798622
 H       -13.7777834584       -0.5011116744        1.9202693024
 H       -15.7851125590        2.9445136258        2.2196343756
 H       -15.8689175811        1.8561895088        0.8244643063
 H       -14.5150432349        2.4701200116        1.2802841737
 Na       -8.6496149053        4.2163126201       -1.2237845480
