117

 C       -17.5268153157        1.9785730481        3.7697526482
 C       -16.3634205598        1.0311255522        3.7595207425
 O       -16.2811741626        0.3070021118        4.7436774983
 C       -15.0875781921        1.1048635566        2.7178266511
 C       -13.6897696902        1.6135641869        3.5149865883
 O       -12.8173640042        1.9710287796        2.7670942195
 C       -13.8659965033        2.1330687491        4.9234658243
 C       -13.0099918086        3.4161543538        5.0768283050
 C       -11.4699237364        3.1156835834        5.2831988592
 O       -11.1621307998        1.9249498858        5.2313748974
 C       -10.4875017750        4.1805019846        5.6723443823
 C       -10.3359001244        4.9745552083        4.3846805907
 O       -11.2390494928        5.6084357507        3.8855532403
 C        -8.9081325668        5.0514393020        3.5686042786
 C        -8.8262957349        6.3062834128        2.7148348368
 C        -8.3638911653        6.0625476338        1.3633248921
 O        -8.1495374614        4.9541459325        0.8678857380
 C        -7.7756950411        7.3337276849        0.5265406244
 C        -8.3638014103        7.3656755307       -0.9639104297
 O        -9.3261564770        6.7117884163       -1.2044641233
 C        -7.6901535363        8.3196828036       -1.9356512203
 C        -7.5180080247        7.7823175053       -3.4004072987
 C        -5.9645317454        7.6178647906       -3.5850022947
 O        -5.2791088072        8.4823062759       -3.1500272303
 C        -5.2670096869        6.2976964077       -4.1903542435
 C        -6.3208571173        5.1762061810       -4.0087416334
 O        -6.4902056810        4.6151363437       -2.9261336244
 C        -7.1174028858        4.5688388236       -5.1596397300
 C        -7.3670149657        3.0703313073       -4.8450650213
 C        -8.5052668827        2.4009039112       -5.6376349667
 O        -8.7289113827        2.6222479374       -6.8293394031
 C        -9.1922196523        1.2550361810       -4.8592439693
 C        -9.3479537429        1.5765612927       -3.3016151292
 O        -9.5955216865        2.7462763617       -2.9469194257
 C        -9.5172159038        0.4163211593       -2.3140402730
 C       -10.3630278432        0.9029970174       -1.1181073708
 C        -9.5597214677        1.3729632590        0.0726317285
 O        -9.0088933460        2.4775893239        0.1910597017
 C        -9.3793530922        0.3689058478        1.2927574157
 C        -8.0863350654       -0.6117730372        1.0339931642
 O        -7.2140937426       -0.1404555398        0.3484348573
 C        -7.8085832866       -1.8443980518        2.0587721407
 C        -8.9683169360        1.1789743825        2.5981896328
 C       -10.6231140751       -0.4302122698        1.4961269979
 C       -10.6966689490        1.1601675228       -5.3852909717
 C        -8.4223698541       -0.0777317278       -5.2381789451
 C        -5.1512436772        6.8178010135       -5.7101495387
 C        -3.7417052920        6.1031470035       -3.4752910238
 C        -7.9533227348        8.6993657701        1.2066633339
 C        -6.2191875459        7.0483319917        0.4337136999
 C       -11.0621190520        5.1117080585        6.8573845921
 C        -9.2935591382        3.4492496734        6.3427076017
 C       -14.8051903893       -0.4533106385        2.2954736273
 C       -15.4308991268        2.0140864690        1.4762661873
 H       -17.3207780681        2.8078917768        3.2073203299
 H       -17.9659446143        2.0512366925        4.7498468820
 H       -18.4189237291        1.7145696864        3.1459506840
 H       -13.7782936599        1.4185221610        5.7839096318
 H       -14.8537148152        2.4140747849        4.9453001688
 H       -13.4193167340        4.0112231970        5.9519216254
 H       -13.1057639896        4.1761265085        4.3185094952
 H        -8.9665097387        4.0715180386        2.8694344690
 H        -8.0692153961        4.8386971096        4.1998729147
 H        -8.0872814827        6.9450426684        3.2031962006
 H        -9.6545444804        6.9160575931        2.7177279168
 H        -6.6459799979        8.5944046708       -1.6772704143
 H        -8.2196306639        9.2726348524       -2.0931641220
 H        -8.0738410163        8.5691413178       -4.0047570314
 H        -7.9273633456        6.7405252862       -3.4027499150
 H        -6.7715018669        4.7405600146       -6.1890218469
 H        -8.0170312469        5.1120441295       -4.9011905278
 H        -7.5506301979        2.8375628610       -3.8157218623
 H        -6.4867830288        2.5914532433       -5.2107963715
 H        -8.4998393690        0.1148140073       -2.1355458390
 H        -9.8646712822       -0.5077146495       -2.7058763840
 H       -10.9575526414        0.0711989525       -0.8403887896
 H       -10.9368892306        1.7153711613       -1.5423823682
 H        -7.1181908325       -2.4713719258        1.5764564018
 H        -8.8151991357       -2.2323705240        2.3673899425
 H        -7.3506780843       -1.4742293838        2.9588531959
 H        -9.1349588173        0.5582791761        3.5171909294
 H        -9.5285642260        2.0890905453        2.6423774672
 H        -7.9804443795        1.3958578825        2.4770495012
 H       -10.6900451135       -1.2258666715        2.3694402290
 H       -10.5198197762       -1.2290579951        0.7016740683
 H       -11.5992242945        0.1334472244        1.3670938008
 H       -11.4428952311        1.1678556349       -4.5980389636
 H       -10.7948534529        0.2980068518       -5.9474543772
 H       -10.9095034238        2.0153511514       -5.9971817061
 H        -8.8313809044       -0.3702810459       -6.2299485780
 H        -8.6484201684       -0.9413044045       -4.5645260223
 H        -7.3264115741       -0.0099520716       -5.2704250042
 H        -4.5511604123        7.7827918092       -5.6776976412
 H        -6.0685867032        7.0009681004       -6.1556923437
 H        -4.7386670489        6.0180007519       -6.2784315422
 H        -3.0035565904        5.8721113923       -4.2257403272
 H        -3.7390095541        5.1984727857       -2.8402871468
 H        -3.3259727692        7.0313879661       -2.9409166400
 H        -7.2901567966        8.8821240818        2.0762318704
 H        -8.9775773202        8.9164480837        1.6915145208
 H        -7.6930614452        9.5770433987        0.7042387654
 H        -5.9143205556        6.1459858545        0.9707561424
 H        -5.8113914082        7.8153726768        1.0097642065
 H        -5.8501821049        7.1831785230       -0.6189734392
 H       -10.1709115466        5.6693428333        7.3132058841
 H       -11.4787500093        4.4562297891        7.6960131617
 H       -11.8373396499        5.7850793951        6.5699709527
 H        -8.3378724332        3.8574593730        6.4379136681
 H        -9.0238372424        2.6085827430        5.7021199587
 H        -9.5512196922        2.7902611077        7.2561448308
 H       -15.3761186696       -0.5733201073        1.2912383888
 H       -15.1026160827       -1.3292935455        2.9267754551
 H       -13.7152425418       -0.4693133951        2.1166964842
 H       -15.7393429524        3.0470855940        1.8526507410
 H       -16.1242731603        1.5303197516        0.8421753589
 H       -14.6242386138        2.1847751837        0.7233826444
 Na       -8.7886013663        4.2633754369       -1.3121261245
