117

 C       -17.6642009038        2.0503622602        3.4250459133
 C       -16.2461379824        1.3168501263        3.8072807387
 O       -16.1946522214        0.4942406906        4.6617675302
 C       -14.9801418264        1.2339609960        2.6479207467
 C       -13.7145017694        2.0513741506        3.1468133137
 O       -12.6297037469        2.0298996082        2.6910859722
 C       -13.9489952242        2.8373432583        4.4593005498
 C       -12.8140774043        3.8126721698        4.8712052639
 C       -11.4569514656        3.1015542006        5.2820117618
 O       -11.1584728302        1.9618255785        5.5664657717
 C       -10.2567018558        4.2389252915        5.4491028126
 C       -10.0468282258        5.1972742771        4.3225623031
 O       -10.8423884156        6.0771253155        4.0863696171
 C        -8.6322353962        5.2471156097        3.4325700587
 C        -8.5965509703        6.4833121917        2.5937328762
 C        -8.2273002973        6.2619898336        1.2209799238
 O        -8.4213794518        5.2027873854        0.6411466174
 C        -7.7769137215        7.5172603087        0.3266134351
 C        -8.3295584120        7.4364285017       -1.2260226854
 O        -9.0062839179        6.5212683060       -1.5034424039
 C        -7.8233729981        8.3805370272       -2.2943121269
 C        -7.2865120780        7.9142749681       -3.5941420695
 C        -5.8649721664        7.4580715317       -3.7534361976
 O        -5.0963228627        8.3979398731       -3.8190577191
 C        -5.2472963319        5.9137691953       -4.1227284701
 C        -6.5832172593        4.9809227539       -3.8176502572
 O        -7.0192979918        4.9384275646       -2.6694554828
 C        -7.2490062702        4.0475541188       -4.8883459145
 C        -7.0494206855        2.4848114738       -4.8561759433
 C        -8.4698002759        2.0914969568       -5.5015290405
 O        -8.9124053008        2.6865450317       -6.4526434658
 C        -9.3475027815        1.0115791232       -4.6914954887
 C        -9.4278751611        1.5342560536       -3.1954554263
 O        -9.4825863790        2.7240357454       -2.9984794219
 C        -9.5032168074        0.4600659170       -2.1533064506
 C       -10.3769038044        0.5594810686       -0.8874445194
 C        -9.6457620447        1.1835778745        0.2409106791
 O        -9.1661434051        2.3096218844        0.2044583041
 C        -9.6469047651        0.5217127113        1.7150917309
 C        -8.4439069974       -0.5921966770        1.4999818601
 O        -7.9094514947       -0.5666954915        0.3965318729
 C        -8.0768609759       -1.6083597317        2.6672331511
 C        -9.0610389570        1.5610421990        2.7942849105
 C       -10.9546337666       -0.3328716123        1.9596974323
 C       -10.7845252383        1.0886375839       -5.3249278458
 C        -8.7553238016       -0.3615593960       -4.8766706882
 C        -4.8214962598        5.7355095495       -5.5435391853
 C        -4.1333791737        5.5132898026       -3.2096880304
 C        -8.3916476462        8.8839237513        0.9970268735
 C        -6.2649739665        7.6546909023        0.4028914584
 C       -10.5814533887        4.9322977381        6.7439465582
 C        -8.9099923512        3.3791679322        5.8052420233
 C       -14.4872433292       -0.1830867967        2.4496299933
 C       -15.2100477149        1.7538242646        1.1340412629
 H       -17.7883871642        3.0863077597        3.1244513421
 H       -18.3673747888        1.7770215277        4.3053144778
 H       -18.1469736997        1.7039884747        2.4301211939
 H       -14.0020139318        1.9889657398        5.2259847508
 H       -14.8654971408        3.1802343134        4.5269559509
 H       -12.9871003608        4.3970837980        5.8181838631
 H       -12.6517898406        4.5970582686        4.2000518999
 H        -8.7533670827        4.3530285893        2.6784767637
 H        -7.7315121457        4.8278120789        3.9770003470
 H        -7.8883485664        7.2721770309        3.0330937681
 H        -9.5108207630        6.8783731870        2.5874467902
 H        -7.1670566446        9.2247397466       -1.9584749430
 H        -8.7440497018        8.9526684096       -2.6288498985
 H        -7.3209946013        8.7312034859       -4.4199195585
 H        -8.0697764268        7.1522253844       -3.8540879200
 H        -6.9106425228        4.4370913019       -5.8196097126
 H        -8.3425898311        4.1698324331       -4.8103070769
 H        -6.8173408234        1.9704309748       -3.9771826919
 H        -6.4613483222        2.1907856418       -5.6384445597
 H        -8.5305088625        0.1046142999       -1.7687117295
 H        -9.7127837497       -0.4525980277       -2.6579452541
 H       -10.8138969349       -0.4284806340       -0.5426066911
 H       -11.2138351838        1.1975393487       -1.0311089920
 H        -7.1693755595       -1.4013751071        3.2071411791
 H        -8.1028167666       -2.5930552060        2.1366601292
 H        -8.9128292656       -1.5551513889        3.3552168599
 H        -8.6804321547        0.8911927545        3.6251622318
 H        -9.9259334985        2.0922714208        3.2338717367
 H        -8.3952449058        2.3010887207        2.3762117285
 H       -10.8431767502       -0.6340832673        3.0115562920
 H       -10.8235914391       -1.2396791730        1.4596554549
 H       -11.9548082209       -0.0156585070        1.6283644141
 H       -10.8492489067        0.4409389241       -6.1437701415
 H       -10.9898434207        2.0509689051       -5.6724288355
 H       -11.5896871223        0.7496063435       -4.6250604018
 H        -8.3485699285       -0.5567160373       -5.8962114531
 H        -9.3904040809       -1.1844943903       -4.6036083675
 H        -7.8233433362       -0.4789511138       -4.3507227774
 H        -3.9473483156        6.3099097283       -5.6615305150
 H        -5.5530681087        6.0525599647       -6.2462585206
 H        -4.7332615253        4.7082234746       -5.6556099001
 H        -4.1678573770        4.5353656554       -2.9226514793
 H        -4.3137708736        6.0329478359       -2.3133177363
 H        -3.1208426065        5.6354264402       -3.5711507468
 H        -8.2134628503        8.7902106293        2.0825251572
 H        -9.5095626592        8.9731038443        1.0422829735
 H        -8.2136793708        9.8602581808        0.7404878046
 H        -6.0577973458        8.7256862185        0.4544875754
 H        -5.8348162706        7.0625871022       -0.4040301799
 H        -5.9046786960        7.0655106613        1.3252033956
 H        -9.6939783162        5.6011449465        6.8865567206
 H       -10.3154640644        4.2114623360        7.4769498637
 H       -11.4810310758        5.2860417758        7.0846259541
 H        -8.0076305727        3.8648737012        6.1424566070
 H        -8.4364734950        2.6493869033        5.1172139308
 H        -9.2154734475        2.6842838489        6.6377597450
 H       -15.3073613435       -0.8760959153        2.7200110686
 H       -13.7987162282       -0.4184034239        3.2415430742
 H       -14.0604196162       -0.3346258653        1.4824656154
 H       -15.8789171381        2.5630799830        1.1469483757
 H       -15.7371585460        1.0099189543        0.5482200288
 H       -14.2779045176        2.0914870180        0.6954167510
 Na       -8.5923792039        4.1851971342       -1.3204476450
