117

 C       -17.3563902677        2.1134951420        3.1027521314
 C       -16.1055340812        1.4459171775        3.5249633524
 O       -16.0013193750        0.7937738723        4.5811593682
 C       -14.8872744672        1.2579569986        2.6782519449
 C       -13.7844201178        2.1903907192        3.2212981057
 O       -12.8233348822        2.4437911123        2.4491513621
 C       -13.8111577862        2.9892238698        4.5253509028
 C       -12.7491879929        4.0697143643        4.6643018589
 C       -11.4202892962        3.3385731585        5.2369964565
 O       -11.3693973921        2.1543465010        5.4614270800
 C        -9.9968773838        4.1339266842        5.3614947547
 C        -9.8792962402        5.3500410808        4.3053727429
 O       -10.7408454011        6.2242904153        4.2932659750
 C        -8.6475294542        5.3201538136        3.3826311240
 C        -8.3969919840        6.6927424622        2.6624065855
 C        -8.3566198496        6.4467370902        0.9964905730
 O        -8.4043057502        5.2695392797        0.6927560651
 C        -7.8792669757        7.6664309558        0.1309392255
 C        -8.1020497457        7.3984743762       -1.4289105247
 O        -8.7867041904        6.4106537672       -1.7727050596
 C        -7.5405777074        8.4274456549       -2.4720837631
 C        -7.2490225978        7.6145989367       -3.8665563633
 C        -5.8010408210        7.1831699052       -3.9295353806
 O        -4.9493194100        8.0170712120       -3.8292104566
 C        -5.4916726802        5.7499460525       -3.9941018296
 C        -6.6996958887        4.9313174845       -3.6433887685
 O        -6.9284286355        4.7586033464       -2.4440094309
 C        -7.4692116118        4.2364270290       -4.7513431013
 C        -7.3705506977        2.7215815425       -4.6258997188
 C        -8.5750852411        2.0195833629       -5.3578410510
 O        -8.8921515399        2.4123176205       -6.4687114199
 C        -9.3473735096        0.9154928542       -4.5732003719
 C        -9.4267220952        1.2543417398       -3.0792664707
 O        -9.6672083239        2.4495396074       -2.8035770206
 C        -9.5230778831        0.2391585131       -2.0118085608
 C       -10.4729595002        0.7371248971       -0.8645089075
 C        -9.6507095431        1.2918750615        0.3124930967
 O        -9.1091034117        2.3989447535        0.3254281347
 C        -9.7708384013        0.5195634432        1.6338452399
 C        -8.5053006078       -0.6349381984        1.3962441546
 O        -8.0004637573       -1.0566201257        0.3952438810
 C        -8.1271221380       -1.2758821658        2.7770945021
 C        -9.3138589688        1.4022414087        2.8563925348
 C       -11.1089145754       -0.0914972524        2.0676446263
 C       -10.8681715312        0.9008642914       -5.1325041170
 C        -8.6548154949       -0.4554955097       -4.8736299366
 C        -4.8367963741        5.5488996993       -5.4980659550
 C        -4.4849787572        5.5935018281       -2.7850417834
 C        -8.5695971646        8.9627715361        0.4756170158
 C        -6.3157156083        7.8113572337        0.4034355402
 C       -10.3163944328        5.0081401811        6.7962252055
 C        -8.8228535563        3.2847719128        5.5168121758
 C       -14.3130279981       -0.2739345176        2.6687483324
 C       -15.2599165342        1.7791999343        1.3531607409
 H       -17.2937580126        3.0392828803        2.5888680985
 H       -18.1409381680        2.2543360944        3.7537813291
 H       -17.5877023200        1.4905172232        2.2670030202
 H       -13.4549620703        2.3797207672        5.3272361427
 H       -14.9591653940        3.1400014922        4.8581555097
 H       -13.0390397336        5.0340825027        5.0586125590
 H       -12.2381857491        4.3569986347        3.6353823975
 H        -8.7618795567        4.5119819958        2.7351270745
 H        -7.7949207530        5.0080644341        3.8765429995
 H        -7.5156524975        7.0171783475        3.0568990886
 H        -9.3070478250        7.4730411016        2.9026036352
 H        -6.6376918871        8.9798210497       -2.3392773135
 H        -8.2760125068        9.1835547453       -2.6236057935
 H        -7.2735081320        8.2986494338       -4.6732487136
 H        -8.1112490116        6.9475336490       -3.9769272783
 H        -7.1009942253        4.5999217778       -5.7728942159
 H        -8.4936085319        4.5783863038       -4.7502512884
 H        -7.4475253362        2.3841131137       -3.5312904292
 H        -6.3301853942        2.4483798301       -5.0872303895
 H        -8.5435035486        0.1110512141       -1.5395666757
 H        -9.7428826223       -0.8531025769       -2.2864583221
 H       -11.0953620195        0.0346529494       -0.4449389615
 H       -11.2026918126        1.4981254160       -1.2889473330
 H        -7.5559587442       -0.5296903842        3.3357946709
 H        -7.4574046393       -2.0830445953        2.5095160304
 H        -8.9793959520       -1.5029652307        3.4189158642
 H        -9.6775305931        0.8020146944        3.6628798168
 H        -9.6654837196        2.4158854263        2.8927105091
 H        -8.2398603925        1.4016640170        2.8596439508
 H       -11.1049430638       -0.1975921652        3.1864440948
 H       -11.5170466501       -1.0142810225        1.4614462267
 H       -11.8083729726        0.7347915082        1.7741210551
 H       -10.9526574956        1.6117027725       -6.0145824091
 H       -11.6563659651        1.2249817304       -4.4331765278
 H       -11.1760471590       -0.0364599423       -5.4753588039
 H        -8.9932763316       -0.8993060002       -5.7715440273
 H        -8.8689662221       -1.2525447766       -4.1314997410
 H        -7.5721623997       -0.4784211371       -5.1290020047
 H        -4.0083532031        6.3656152043       -5.5566724902
 H        -5.6660260872        5.7077460600       -6.1749724194
 H        -4.4508298216        4.4813354517       -5.5626106231
 H        -3.9046631621        4.6116103185       -2.8646812643
 H        -4.8908948388        5.6837504122       -1.7501527805
 H        -3.7187580065        6.3430122845       -3.0063701544
 H        -8.2451642041        9.6051496154        1.2596198502
 H        -9.6074191250        8.9884072531        0.6828799725
 H        -8.6188024594        9.5295007185       -0.5001155676
 H        -5.7343602810        7.7124190338       -0.5170959287
 H        -6.1999723025        7.0109495635        1.0807423785
 H        -6.0251379520        8.7197928558        0.8768257906
 H        -9.5630415310        5.7031501607        7.1476695216
 H       -10.7132557131        4.4403076772        7.7090440665
 H       -11.2706783019        5.5208007566        6.4787318287
 H        -8.0535307197        3.8130705068        6.0866271415
 H        -8.2902735580        3.0189505239        4.6279687217
 H        -8.9286426993        2.3128533042        5.9895540638
 H       -15.0030803942       -1.0078699172        3.1128901228
 H       -13.4161056095       -0.3595785121        3.3434853970
 H       -14.0305204350       -0.5122464772        1.5962911864
 H       -15.7283443249        2.8716663935        1.4644420892
 H       -16.1557812431        1.3061696496        0.8619123584
 H       -14.3591589917        1.8890374789        0.6525378226
 Na       -8.6294835246        3.7330809471       -1.1898846523
