117

 C       -17.3850433024        2.3031796998        3.1219326468
 C       -16.0664503238        1.8030889861        3.4921336326
 O       -15.9007688348        1.2875767754        4.6109754556
 C       -14.7085237410        1.5229959136        2.5930574981
 C       -13.6492107178        2.6001520526        2.8895788098
 O       -12.8696440864        2.9153281875        1.9869291058
 C       -13.6373136719        3.2900843692        4.3665726886
 C       -12.4676505170        4.2805113152        4.7295804021
 C       -11.2021096446        3.5750992923        5.2084841049
 O       -11.1620008864        2.3659429687        5.2593584695
 C        -9.9765567367        4.4595684657        5.3977508474
 C        -9.7039233832        5.5856857296        4.2979984611
 O       -10.5653913997        6.4765907075        4.2892460249
 C        -8.5877110139        5.6527772904        3.3289686023
 C        -8.6411797796        6.8826262295        2.4448095167
 C        -8.3041333608        6.4594095522        0.9198977171
 O        -8.4960612585        5.3134916188        0.5525274091
 C        -7.9045606416        7.6863494083       -0.0480549348
 C        -7.9923247604        7.2798917487       -1.5464104923
 O        -8.6481255440        6.2567370830       -1.9313075610
 C        -7.7426616755        8.3259096764       -2.7308402682
 C        -7.1152967406        7.7120935951       -4.1287311039
 C        -5.6834456044        7.1406985864       -3.9401835606
 O        -4.7418512957        7.8878105819       -4.0297037178
 C        -5.4198673244        5.5454285897       -3.7151694682
 C        -6.5792381246        4.6023695448       -3.2761683623
 O        -6.4836536220        4.1053798987       -2.2181930959
 C        -7.7156834838        4.2473612105       -4.3251514097
 C        -7.5678126892        2.7486817428       -4.7623287901
 C        -8.7775086343        1.8960661572       -5.3715411499
 O        -9.0772885842        1.9192539312       -6.5578821923
 C        -9.4774305854        0.7497854155       -4.4948706743
 C        -9.6265019019        1.2754780335       -3.0982047086
 O        -9.7495749408        2.4974879163       -2.9271544068
 C        -9.8098875272        0.2649410426       -2.0206622344
 C       -10.5838897076        0.7157538423       -0.7168272663
 C        -9.7832004713        1.2599827595        0.4690477877
 O        -8.9709670468        2.1449493661        0.3292219115
 C        -9.7036838094        0.3989896227        1.8685269313
 C        -8.6759348032       -0.8866273366        1.6974361511
 O        -8.6706844285       -1.4618727855        0.6781512757
 C        -7.9020880654       -1.4699718363        2.9926145861
 C        -9.3977086837        1.3551091015        3.1465664731
 C       -10.9967274133       -0.4615734795        2.2067257508
 C       -10.8774423149        0.3273180113       -5.1324775845
 C        -8.5731632746       -0.4853354708       -4.6521756198
 C        -4.8170528869        5.0721238548       -5.1602998403
 C        -4.2145641770        5.5305044777       -2.6815679034
 C        -8.9609418542        8.8323058645        0.2483762577
 C        -6.4056356593        8.0673554847        0.3823089584
 C       -10.1368759083        5.0593682746        6.8855588711
 C        -8.7646387313        3.6157003270        5.2931204824
 C       -14.3843547948       -0.0056790512        2.9923052050
 C       -15.1994621721        1.4069447318        1.1823186824
 H       -17.5680342863        3.4108208539        2.8493762118
 H       -18.0829264703        2.2167612076        3.9403760382
 H       -17.7842898140        1.7402287526        2.2588162773
 H       -13.7465071820        2.4829198326        4.9908956025
 H       -14.6214926444        3.8704957265        4.5916601000
 H       -12.7717511036        5.1949596283        5.2620348494
 H       -12.2301066381        4.7001946385        3.7551857193
 H        -8.4275926256        4.7157259705        2.7006324273
 H        -7.6772899280        5.5998580500        4.0622242772
 H        -8.1682836326        7.7127596631        2.7287902023
 H        -9.6991700545        6.9511063591        2.4282087167
 H        -7.0783420431        9.1817076177       -2.5613836546
 H        -8.6592308431        8.8785835579       -3.0972577862
 H        -7.2038432084        8.6132365675       -4.7867037806
 H        -7.9599837381        7.0517316548       -4.5508982214
 H        -7.5804589309        4.9671455748       -5.1088034665
 H        -8.7317922830        4.4800008338       -4.0569040345
 H        -7.0820380411        2.2051487073       -4.0143527374
 H        -6.8205908760        2.7668455664       -5.5354379941
 H        -8.8283641869       -0.1780330362       -1.8096280678
 H       -10.4275501684       -0.5371937933       -2.4159273489
 H       -11.2069312658       -0.0172236657       -0.3645477359
 H       -11.3164799913        1.4368110848       -1.0416691120
 H        -7.4258619497       -0.5834497759        3.4941372571
 H        -7.1067498731       -2.0787377321        2.6560077381
 H        -8.5658921750       -1.8998555609        3.7427027343
 H        -8.9732924955        0.7717316974        3.9210184129
 H       -10.1924240375        2.0444467500        3.4895590271
 H        -8.5496866410        1.9533083276        2.6532970342
 H       -10.7683918782       -1.0886549538        3.0058898011
 H       -11.1358571500       -1.0859810544        1.2885936385
 H       -11.8930417636        0.0692575629        2.3935200140
 H       -11.7810713421        0.7611030415       -4.7082068217
 H       -11.0254210833       -0.7542157158       -5.0958763982
 H       -10.8850444233        0.5426294691       -6.1325036634
 H        -8.1410488764       -0.6579187438       -5.6052060636
 H        -9.0625447873       -1.4404554131       -4.5131412968
 H        -7.7053552338       -0.5327747809       -3.9989583489
 H        -3.8740716876        5.5438369962       -5.3227908930
 H        -5.5663398448        5.3545909081       -5.8073114998
 H        -4.6477457385        4.0567072300       -5.1015500227
 H        -3.8100826575        4.5125846140       -2.6661903136
 H        -4.5011162096        5.7887818613       -1.6964131105
 H        -3.4720810337        6.1624805018       -3.0043466897
 H        -9.3934322246        8.7958745069        1.2598305362
 H        -9.8043141586        8.8638810092       -0.3712466589
 H        -8.6098348999        9.9371138585        0.1360585352
 H        -6.0514691108        7.3096075886        1.1601894924
 H        -6.2366442335        9.0969217068        0.8317652642
 H        -5.8780094356        7.8830669291       -0.5438546317
 H        -9.3766822287        5.7174599276        7.0601368187
 H       -10.3693308858        4.3771895701        7.6974473871
 H       -10.9818846371        5.8145232320        6.8586910553
 H        -7.8949022654        4.1263096202        5.8349039589
 H        -8.4435058608        3.1456097543        4.3705152067
 H        -8.7748895583        2.8088039238        5.9640229811
 H       -15.1371901740       -0.5836665214        2.5751658441
 H       -14.2305516279       -0.1500643683        4.0571442722
 H       -13.5436963005       -0.3848389072        2.3914043010
 H       -15.6396300542        2.2854039811        0.6359159499
 H       -15.9841032307        0.6418080434        1.1984794132
 H       -14.4140091984        0.9522485009        0.6274293119
 Na       -8.8769572805        4.0185867010       -1.3173403918
