117

 C       -15.9741742481       -2.2008377381       -0.8156761244
 C       -14.5883383612       -2.5751102185       -0.2678557277
 O       -14.2350036168       -2.5861055108        0.8960099252
 C       -13.4047824955       -2.9616369874       -1.3030340353
 C       -12.3009993646       -1.8699301379       -0.8275420486
 O       -12.3272484216       -0.7196880744       -1.2678942686
 C       -11.2367730049       -2.3841702772        0.1872765224
 C       -10.6393453003       -1.2163930398        1.0150266639
 C        -9.2977422964       -1.7218919610        1.6322267054
 O        -9.2161669595       -2.8935416911        1.9567696799
 C        -8.0675543513       -0.7824209102        1.6350718456
 C        -8.4051943049        0.5006383830        2.4395553082
 O        -9.5719217741        0.7755448821        2.5997265184
 C        -7.2983740704        1.4675255793        2.9860742548
 C        -8.0086321509        2.3694920302        4.0357600448
 C        -8.7151553356        3.5186786612        3.2923087300
 O        -8.1587117947        3.9688824210        2.2455512975
 C       -10.0524983862        4.2235283461        3.6439980849
 C       -10.8889250291        4.2523288383        2.3598729049
 O       -10.9905943038        5.1827122906        1.6261359683
 C       -11.5165232833        2.9049169795        1.9074897747
 C       -12.0602213731        2.9469064788        0.4786536787
 C       -10.8531479930        3.0124674738       -0.5911494776
 O        -9.7507054956        2.5358540549       -0.3508292263
 C       -11.1858258348        3.5699843868       -2.0402163765
 C       -10.1147197601        4.7226638530       -2.3805860367
 O        -9.2059190516        4.9060019581       -1.6306415754
 C       -10.4402045822        5.6408823245       -3.5728243221
 C        -9.3344164534        6.6537672261       -3.9346596419
 C        -9.9291788143        8.0734365944       -3.8236850879
 O       -11.1200444392        8.1910548595       -3.7714811894
 C        -8.9807047831        9.3319051353       -3.8131572771
 C        -8.4361724621        9.4753990592       -2.3192141239
 O        -7.3554465722        8.9926053065       -2.0483469863
 C        -9.2522501990       10.2072169091       -1.2834432138
 C        -8.5183535226       10.0287667192        0.0659545932
 C        -8.1213749874        8.5764758728        0.2246353260
 O        -9.0004521198        7.7387738453        0.1046986856
 C        -6.7742325392        8.2065691398        1.0820885082
 C        -6.0074582281        6.9591319254        0.3540958485
 O        -6.5945859833        5.9610452252        0.1240236175
 C        -4.5009912727        6.9621863548       -0.0581049236
 C        -5.8472884596        9.4431482802        1.1549471649
 C        -7.1597297436        7.6347434853        2.4492584312
 C        -7.7707153318        8.8965790443       -4.6674843204
 C        -9.8124101528       10.4979937176       -4.3135207748
 C       -11.0865883243        2.3659444983       -3.0386702133
 C       -12.6303695303        4.1661329487       -2.1881706385
 C       -10.7619962226        3.3928349424        4.7521050430
 C        -9.7758082212        5.6776950443        4.2378548291
 C        -6.8434256039       -1.4078905006        2.4185911536
 C        -7.7684324032       -0.3963292697        0.2437606657
 C       -12.9819606779       -4.3671025653       -1.1880839169
 C       -13.7104301424       -2.7038888959       -2.7812480739
 H       -16.4229670180       -3.1055051608       -1.2789577935
 H       -15.9151469307       -1.3571982514       -1.5074239531
 H       -16.5875446626       -1.7904600293       -0.0249222228
 H       -10.4246906047       -2.9667979479       -0.2050062860
 H       -11.7592224011       -2.9917694291        0.9866386636
 H       -11.4359068628       -0.8049821796        1.6488283724
 H       -10.5631314117       -0.2332488894        0.3969026542
 H        -7.0601044806        2.1721654215        2.1742080363
 H        -6.4231401354        0.9131218344        3.2355177337
 H        -7.2429608697        2.7675058329        4.6742841647
 H        -8.7861679960        1.7638369213        4.6021971050
 H       -12.3319271343        2.6150072468        2.6398053946
 H       -10.7685836086        2.1122575453        2.0590246865
 H       -12.8209233937        3.7458414194        0.2944782815
 H       -12.5705937327        1.9624421525        0.3004621761
 H       -11.2462395473        6.2777467650       -3.0846696399
 H       -10.7978827197        5.1722697962       -4.4875337043
 H        -8.9269072837        6.4117045218       -4.9518605843
 H        -8.4203806211        6.5503238036       -3.2106616760
 H       -10.2681202848        9.8188302345       -1.1419372407
 H        -9.3837850135       11.2160160806       -1.5365330311
 H        -9.0061868878       10.3096656063        1.0100957853
 H        -7.5765726525       10.6191170152       -0.0592153345
 H        -4.2252802998        7.7753027170       -0.8004506860
 H        -4.3418157188        5.9732352969       -0.5151267789
 H        -3.7258063657        6.9336432027        0.7555266807
 H        -6.0044080855       10.3608912882        1.7804465493
 H        -5.7046185873        9.7550625554        0.0929394160
 H        -4.8524800730        9.0410930512        1.4342419586
 H        -8.0282722835        7.0072914974        2.3968509739
 H        -7.3215058545        8.4636968468        3.0694848922
 H        -6.2360176831        7.1143764903        2.9148710540
 H        -8.2672540872        8.4403156005       -5.5326765261
 H        -7.1148363980        8.2544195625       -4.1917306988
 H        -7.1687556756        9.7903454605       -4.9529064530
 H       -10.6477751104       10.2417171342       -5.0066020131
 H        -9.1177239167       11.2212483995       -4.8770237387
 H       -10.2481121615       11.0200509681       -3.4203953507
 H       -11.8500485961        1.6167373881       -3.0115834933
 H       -10.1616035606        1.8634877159       -2.9492347200
 H       -11.0468036308        2.7683118402       -4.0329229147
 H       -12.9895642495        4.7320953020       -1.2561016457
 H       -13.2816747056        3.2650795486       -2.3565340937
 H       -12.7466889669        4.7439557905       -3.1048756055
 H       -10.7722221506        2.3285185706        4.4654476896
 H       -11.7314813300        3.8422339141        4.8856530348
 H       -10.1198649402        3.5196537904        5.5941853391
 H       -10.4969203248        5.8619062181        5.0717583533
 H        -9.9368308972        6.4652007217        3.5211289133
 H        -8.6972271280        5.7538467180        4.5086497312
 H        -6.4697418029       -2.2640837366        1.9331636764
 H        -7.0353631496       -1.6893053011        3.4423439147
 H        -6.0576262670       -0.6647410262        2.4205787653
 H        -8.5247204737        0.2886564807       -0.1828802298
 H        -7.7060169906       -1.2056026784       -0.4247950375
 H        -6.8347831566        0.1596206365        0.2768358020
 H       -12.6742549319       -4.6975261558       -0.2125062071
 H       -12.0877980032       -4.5514794577       -1.7872628427
 H       -13.6810121753       -5.1908837300       -1.4179808784
 H       -14.2078441256       -1.7701554781       -3.0072834271
 H       -14.2742561651       -3.6060558587       -3.1535958428
 H       -12.8556207025       -2.5840629565       -3.4575294108
 Na       -8.9174257935        5.3212292983        0.5987260422
