117

 C       -17.3334521251        2.4556727871        3.0631353478
 C       -16.1334009493        1.8266238372        3.5714949716
 O       -15.8874299582        1.6346363890        4.7225845117
 C       -14.8012214958        1.4998000566        2.5469846496
 C       -13.6466185552        2.5671075974        2.8949028554
 O       -12.9206003884        3.0451484388        2.0159687893
 C       -13.6285789980        3.3110324597        4.1858130398
 C       -12.4579079889        4.2485372010        4.5021871987
 C       -11.1698016758        3.5996031126        4.9046534390
 O       -11.1206399221        2.4506623742        5.2761557980
 C        -9.8055922742        4.5547241386        5.3991877912
 C        -9.7817770339        5.7311047006        4.3977397676
 O       -10.6344986000        6.6032148801        4.3443563355
 C        -8.5497984281        5.6788872897        3.3930115155
 C        -8.7265321383        6.8236267924        2.3362927563
 C        -8.4616508707        6.4129489183        0.8212346987
 O        -8.4541127064        5.2255926129        0.6653913032
 C        -7.9955618328        7.6674042622       -0.0683748040
 C        -8.1219628439        7.3573492977       -1.6811823482
 O        -8.5065004581        6.2831910894       -1.9834777410
 C        -7.7797095452        8.3600019690       -2.8341606169
 C        -7.1178053355        7.5434164420       -4.0583891195
 C        -5.6650332309        7.0084850942       -3.9227214256
 O        -4.6456837084        7.6522341390       -4.0800509564
 C        -5.3386689232        5.4318837322       -3.7185911441
 C        -6.3886617042        4.4622048771       -3.2427184474
 O        -6.5221895809        4.0295926373       -2.0823236948
 C        -7.6267863485        4.0460519780       -4.2605591202
 C        -7.5519039213        2.6768601438       -4.8649052535
 C        -8.8413029772        1.9008776289       -5.4689863263
 O        -9.1444655871        1.9875424184       -6.6558691510
 C        -9.3948753970        0.7713422472       -4.4953975050
 C        -9.7510703693        1.3207774059       -3.0259562538
 O        -9.8103958325        2.5391380065       -2.8641745555
 C        -9.9113385196        0.2639684035       -1.8818724312
 C       -10.6675627344        0.7086617692       -0.6024088233
 C        -9.6778987714        1.0615118259        0.4930912857
 O        -8.9625884016        2.0685686676        0.3254732941
 C        -9.5647846902        0.2379797885        1.8291159016
 C        -8.6322605929       -0.9328317902        1.6614385580
 O        -8.7325747315       -1.7052728775        0.6825336747
 C        -7.9249181806       -1.3706749704        2.8907021559
 C        -9.4346582395        1.2072551442        3.0419172477
 C       -10.8758638931       -0.4010527228        2.4110790963
 C       -10.7437956244        0.3454825581       -5.1904681379
 C        -8.4750166767       -0.4398641010       -4.3796825752
 C        -4.9291965476        5.0080861453       -5.2133020416
 C        -4.3492045660        5.5541963260       -2.6398086842
 C        -8.9545384175        8.8851050253        0.1289548977
 C        -6.5974117128        8.1173680745        0.3565641273
 C       -10.0839020632        5.1675645230        6.7586747438
 C        -8.4971219497        3.7600840647        5.4348542295
 C       -14.3560689472        0.2086125019        3.2429389428
 C       -15.2826739901        1.4314432994        1.0126632299
 H       -17.1743520635        3.3944678451        2.8441435444
 H       -18.1735922508        2.5163303415        3.7104306527
 H       -17.6108688212        1.9935752689        2.1331732854
 H       -13.7512928208        2.4722039633        4.9055622603
 H       -14.5800389164        3.9338656583        4.3875593555
 H       -12.7267668381        4.8617772605        5.3505669897
 H       -12.4228171921        5.0536984441        3.6480264831
 H        -8.4637310912        4.7006544943        2.9413412438
 H        -7.6793256398        5.7738351799        3.9178332587
 H        -7.9581204984        7.5334065336        2.4738691349
 H        -9.7608033928        7.1273185145        2.6648556570
 H        -7.2249567046        9.3188430244       -2.6972838505
 H        -8.6533505208        8.7510768260       -3.3339650133
 H        -7.1925530663        8.3124028998       -4.8298662991
 H        -7.9776684283        6.8623973498       -4.3362825050
 H        -7.8391586288        4.9314192119       -4.9061678074
 H        -8.5430263214        4.0682333781       -3.7665359263
 H        -6.9643276630        2.0194902376       -4.1593726835
 H        -6.8245864303        2.6604126198       -5.6972656306
 H        -8.9279184952       -0.0411059966       -1.5568319200
 H       -10.4736169957       -0.6601090709       -2.2855493510
 H       -11.3659395628        0.0301839483       -0.2478296632
 H       -11.2989115949        1.5759528862       -0.7484904651
 H        -7.3364377493       -0.5889550084        3.3300183651
 H        -7.1944718274       -2.1175894969        2.5095036258
 H        -8.6315472377       -1.7178809602        3.6460767060
 H        -8.9076203838        0.6343736364        3.8385100740
 H       -10.3114401889        1.6885642232        3.3819170520
 H        -8.7114019157        1.8829775357        2.6861447176
 H       -10.8455110551       -0.6838463191        3.5299643895
 H       -11.1684985243       -1.2538987448        1.7830044185
 H       -11.6486967848        0.3907934534        2.1777700205
 H       -11.5921245837        0.3500147478       -4.5421500012
 H       -10.7123878891       -0.5997746655       -5.5692175802
 H       -11.0176308837        0.9594486379       -6.0144581988
 H        -7.9709143501       -0.7909974573       -5.2322742211
 H        -9.0210093669       -1.3677324671       -4.1525165708
 H        -7.6942984601       -0.4122257382       -3.5879209149
 H        -3.9813689039        5.4652754081       -5.5366918312
 H        -5.7835787815        5.3079611804       -5.7220477611
 H        -4.7533616799        3.9772088233       -5.0940791558
 H        -4.1450427449        4.5711521704       -2.2980329027
 H        -4.7603070157        6.1436300612       -1.8643057830
 H        -3.4112764597        5.9930954852       -2.9382461876
 H        -9.4655158299        9.2449036059        1.0266442698
 H        -9.7581525183        8.8271045671       -0.6788110659
 H        -8.4644135528        9.7939387502       -0.2431588273
 H        -6.6397489793        7.8946924760        1.4290187575
 H        -6.4490924478        9.1696525309        0.3442832664
 H        -5.7731092300        7.5234783123       -0.1678738180
 H        -9.4790052851        6.0632642273        6.9664389160
 H       -10.2390569729        4.5008820774        7.6668320548
 H       -10.9870925309        5.7049276485        6.6286014810
 H        -7.7009958801        4.3450028871        5.7943093414
 H        -8.1652845706        3.1592790974        4.5967284879
 H        -8.3927117454        3.0519731799        6.3321265061
 H       -15.2140350642       -0.4887519374        3.2594483996
 H       -13.8340201058        0.4540574357        4.1937188902
 H       -13.7051580346       -0.3462311906        2.5466733464
 H       -15.9307681404        2.3537398270        0.7444614854
 H       -15.8790343552        0.4896853992        0.8025732860
 H       -14.3947373858        1.3390042102        0.2918441983
 Na       -8.9147444258        3.9119661239       -1.2745146947
