117

 C       -17.3847703336        3.4563602161        2.7825586292
 C       -16.1617429176        2.9070219478        3.5741223403
 O       -16.1229213960        2.9374200332        4.7972177470
 C       -15.0401047489        1.9023780957        2.9562121491
 C       -13.8304169647        2.7959048009        2.7279395363
 O       -13.4282630402        3.1051265472        1.6408201832
 C       -13.2060338645        3.4559195359        3.9947833038
 C       -11.9948066568        4.4955272401        3.9648348708
 C       -10.6996909314        3.9085005589        4.8528992370
 O       -10.4858750487        2.7215004875        4.9951051242
 C        -9.9215456155        5.1210272007        5.5022803887
 C        -9.8575419379        6.2510458588        4.4204510740
 O       -10.5042403421        7.2606812898        4.5972728601
 C        -8.8677532033        6.2235840664        3.2911723829
 C        -9.1296741845        7.1031101555        2.0748752867
 C        -8.6751036597        6.5208657259        0.7997162297
 O        -8.6366151757        5.3058121953        0.6021405558
 C        -8.2540389519        7.4888864474       -0.4151178127
 C        -8.3122280342        6.8884039950       -1.9004276456
 O        -8.9435218762        5.8484488968       -2.1293279669
 C        -7.8201097794        7.7979717505       -3.0039217382
 C        -7.0019580304        6.9576006636       -4.1344964017
 C        -5.4665453561        6.4927312992       -4.0376113434
 O        -4.6110857726        7.3056574538       -4.1363226499
 C        -5.1695283222        4.9323178394       -3.7796893776
 C        -6.5702206379        4.1606242491       -3.3763269084
 O        -6.6829186930        4.0182240975       -2.1305649243
 C        -7.6004481920        3.7841975132       -4.3590523367
 C        -7.5733513075        2.2514940079       -4.5336499199
 C        -8.9025805731        1.7939633347       -4.9584697913
 O        -9.4670696106        2.3253168069       -5.9037221695
 C        -9.4693369760        0.4951864721       -4.2286360532
 C        -9.8350695709        1.0562996056       -2.8569505723
 O        -9.6529420485        2.2487237441       -2.7165804958
 C       -10.3075572003        0.1158165402       -1.7739722272
 C       -10.6125999676        0.8172662797       -0.4471641115
 C        -9.3801074680        0.8347512613        0.4936438954
 O        -8.4469983318        1.5968680968        0.3361788957
 C        -9.4717594639        0.0587862956        1.8715987003
 C        -8.6490406750       -1.2845762599        1.4893974476
 O        -9.0443143835       -1.7344542043        0.4562973286
 C        -7.4695820409       -1.7773438740        2.2572184753
 C        -8.7427858236        1.0212867073        2.8455210656
 C       -10.8632383208       -0.5142330727        2.4276668509
 C       -10.6198914873       -0.1287999985       -5.0547569440
 C        -8.2454498742       -0.4585117811       -3.9753328952
 C        -4.5550973378        4.2925658018       -5.0303579910
 C        -4.0757509166        4.9991856330       -2.6981946115
 C        -9.3552953166        8.5216435486       -0.4255803290
 C        -6.8147281066        8.2841972532        0.0909201735
 C       -10.6212637907        5.4635996622        6.8704702858
 C        -8.4127792432        4.6779244212        5.8042472972
 C       -14.7041873284        0.6554272808        3.8941752582
 C       -15.2632704458        1.3046748192        1.4754673653
 H       -17.0712781799        3.5416071046        1.7463144260
 H       -17.6849182057        4.3985867004        2.9706074949
 H       -18.1791798174        2.8950673685        2.9647120069
 H       -12.7110120155        2.6874949393        4.7846974827
 H       -14.0877147612        3.8995170802        4.4680346198
 H       -12.2487141952        5.4998128232        4.4608356207
 H       -11.5663656403        4.5716901352        2.9244146782
 H        -8.7475181179        5.2875891595        2.9679972088
 H        -7.9312269159        6.5383650776        3.6383561718
 H        -8.2785647680        7.9260985560        2.0254951935
 H       -10.1879895482        7.4851339512        2.0025669783
 H        -7.1358285057        8.5330415713       -2.5821210005
 H        -8.6325830531        8.3431809471       -3.4454184836
 H        -7.0316053373        7.4129954364       -5.1682444282
 H        -7.5999751127        6.1001381715       -4.1880284423
 H        -7.5040379242        4.1840680640       -5.3313452409
 H        -8.5421081119        4.2418469853       -3.9605163022
 H        -7.4677381168        1.8995628203       -3.4680084011
 H        -6.6128434487        1.8761602120       -5.0098973033
 H        -9.4446453226       -0.5690381857       -1.6399076869
 H       -11.2709284255       -0.2825082391       -2.0895874270
 H       -11.4601893056        0.4542824920        0.2107568898
 H       -10.8410742016        1.8102236053       -0.7583485806
 H        -6.4570438194       -1.5282082237        1.9002456182
 H        -7.4791925138       -2.8566992680        2.0993162032
 H        -7.6657704015       -1.5761885260        3.3247746777
 H        -8.4563804182        0.4518955893        3.6358091582
 H        -9.4316676618        1.6998863696        3.2525938689
 H        -7.7679824717        1.2382499748        2.4994369078
 H       -10.5900682866       -0.9718300852        3.3870692678
 H       -11.4149583143       -1.2376949842        1.7177484033
 H       -11.6128114433        0.2257550935        2.7846599475
 H       -10.2972316675       -0.8982172744       -5.6713239995
 H       -11.0423883894        0.5834988892       -5.7259199749
 H       -11.4123831825       -0.4847405060       -4.4578739568
 H        -7.5520940964       -0.5190159271       -4.8717724141
 H        -8.4098004670       -1.4633946650       -3.6347853652
 H        -7.6396295770       -0.1847233855       -3.1419407455
 H        -3.5785366426        4.6359562401       -4.9825398852
 H        -5.0882944331        4.6302825432       -5.9287279894
 H        -4.6197780527        3.2453540171       -4.7877040747
 H        -3.5159972988        4.1203271939       -2.5717438280
 H        -4.5431916203        5.2340454407       -1.7660154897
 H        -3.4642732840        5.8258889971       -2.9359838739
 H        -9.1370420751        9.2316446220        0.4093157984
 H       -10.3721148367        8.1196107993       -0.4689137509
 H        -9.1418729329        9.3235036318       -1.1304085074
 H        -5.9371924630        7.8552286850       -0.4481323083
 H        -6.7363290253        8.0031276941        1.2007084079
 H        -6.8976236868        9.3527461549        0.0982009989
 H        -9.8948453481        6.1015328345        7.4466570395
 H       -10.6357569755        4.5619341870        7.4113258004
 H       -11.6259412651        6.0018242013        6.9924803157
 H        -7.7218687705        5.3593192896        6.3589815720
 H        -7.8541752808        4.5804865499        4.8390281872
 H        -8.2362847925        3.8293860791        6.4146545909
 H       -14.9769231053        0.9358423666        4.9559255258
 H       -13.6198952203        0.4525811328        3.8677703935
 H       -15.2616034199       -0.2587876852        3.5953221762
 H       -14.9468188175        2.0678250420        0.7003595095
 H       -16.2981111957        0.7915508258        1.2983930129
 H       -14.5340510884        0.4057987956        1.4283718920
 Na       -8.7432295019        3.7307784296       -1.1846281910
