117

 C       -17.1893170842        3.7111045007        2.4191503294
 C       -16.1482093293        3.2265767995        3.5115325559
 O       -16.1179171292        3.4991815054        4.6810703431
 C       -15.1293470908        2.0834038616        3.0678406209
 C       -13.8472047144        2.8890540475        2.8483560579
 O       -13.4972805302        3.2532965109        1.7461630910
 C       -13.0333678029        3.2251620666        4.0921715418
 C       -12.0104104811        4.3256366538        3.8589044882
 C       -10.7268052187        4.1813642007        4.6951958698
 O       -10.1679484003        3.1109872323        4.8720112541
 C        -9.9351086280        5.4309440100        5.4954636233
 C        -9.7979574426        6.6233666475        4.5738778800
 O       -10.4260632746        7.6133831258        4.7548550542
 C        -8.8130167300        6.3067506324        3.4169552413
 C        -9.1729936060        7.1059872400        2.0879532531
 C        -8.8485112257        6.4519542768        0.5917710668
 O        -8.6958669005        5.2189466089        0.6468650654
 C        -8.4588019139        7.4529593690       -0.5143485342
 C        -8.3805461644        6.8456709006       -2.0415651472
 O        -8.9660765177        5.8337266298       -2.3000487690
 C        -7.5506153978        7.7523071497       -3.1035877007
 C        -6.9002248458        6.9849291515       -4.2480005542
 C        -5.4125169584        6.4810227599       -4.0568069707
 O        -4.5509026323        7.3711311046       -4.1586076166
 C        -5.0229208499        4.9260416266       -3.6996969515
 C        -6.2150674349        4.0577496152       -3.2167548205
 O        -6.4549745263        4.0584642238       -2.0292120246
 C        -7.2565589600        3.5804369250       -4.3337401246
 C        -7.4973257016        2.0895644505       -4.5285373673
 C        -9.0314189804        1.5449103063       -4.9716527829
 O        -9.7419353345        2.0925931358       -5.7231032881
 C        -9.5494512209        0.1488724218       -4.1410442701
 C        -9.8668547522        0.7796712334       -2.6937998076
 O        -9.3758385814        1.8973646127       -2.5608029693
 C       -10.5921764891        0.0156970432       -1.5296648911
 C       -10.7704108852        0.9246230085       -0.2094499236
 C        -9.4198808255        0.9748652871        0.5916566407
 O        -8.4693685209        1.6220072953        0.1350036547
 C        -9.2508133092        0.1053485939        1.8849524052
 C        -8.5922292344       -1.2484690472        1.1938853309
 O        -9.1024436836       -1.8947950500        0.2575717213
 C        -7.5108618277       -2.0199856167        1.9225259629
 C        -8.4135216421        0.6382952632        3.1209407040
 C       -10.6401524018       -0.3263770182        2.4538664148
 C       -10.7610987056       -0.5273275229       -4.9417427896
 C        -8.4823864519       -0.9553994300       -4.0326572501
 C        -4.5189539456        4.4057971967       -5.0895185521
 C        -3.9217850420        4.8121390561       -2.5880992852
 C        -9.6463534597        8.6455102754       -0.6477234911
 C        -7.0427056145        7.9990817800       -0.1339266369
 C       -10.7739661838        5.6299848248        6.7526644085
 C        -8.5300208783        4.9661769661        5.9424570610
 C       -14.8762947168        1.0367424732        4.1463316661
 C       -15.6616549981        1.3087516452        1.8472764528
 H       -17.3978869118        3.0815582937        1.5170311176
 H       -17.0628294694        4.7387056714        1.9169114695
 H       -18.0918585987        3.8874339880        3.1304033910
 H       -12.4751934553        2.3885852170        4.3413295376
 H       -13.7011548269        3.4973635192        4.9069839457
 H       -12.4699089973        5.2302956802        4.1796211995
 H       -11.6724624151        4.3046318471        2.8239466440
 H        -8.6789294519        5.1498999854        3.1371517051
 H        -7.8445679506        6.7439817003        3.8479546281
 H        -8.7278260265        8.1308853025        2.0267778866
 H       -10.2229245721        7.2643692614        2.0348920764
 H        -6.7233698001        8.4111063720       -2.7284961941
 H        -8.1993424377        8.4247654470       -3.6682923519
 H        -6.6912792073        7.7243070662       -4.9653378459
 H        -7.7102271875        6.3333910904       -4.6650099017
 H        -7.0591923760        3.9179260920       -5.4205844181
 H        -8.2228770677        4.0923856344       -4.0737519405
 H        -7.0559815296        1.6158234447       -3.6428037123
 H        -7.0014361889        1.6044865000       -5.3950453527
 H        -9.9322236376       -0.7989245857       -1.2007049255
 H       -11.6334515111       -0.2452361085       -1.7652975384
 H       -11.5515643065        0.5237925792        0.4481491127
 H       -11.0301295140        2.0155444416       -0.4579366665
 H        -6.6081138350       -1.4433260237        1.8510429358
 H        -7.2026104161       -2.9074256593        1.3329523287
 H        -7.7552456901       -2.3098965410        2.9410375513
 H        -7.7036450920       -0.1178429169        3.6700628246
 H        -9.1883943761        1.0032448005        3.8138454428
 H        -7.6683828613        1.3459370917        2.8111659508
 H       -10.5446610163       -0.9485114518        3.4052319028
 H       -11.1971560295       -0.8595966644        1.7235693356
 H       -11.2511948817        0.5539288414        2.7549515952
 H       -10.5545615527       -0.5122812772       -6.0316787028
 H       -11.7139566474        0.0266400856       -4.8505285805
 H       -10.9529871316       -1.6154996415       -4.6270627369
 H        -8.0785014110       -1.1978547576       -4.9785992892
 H        -8.9085955566       -1.8700294073       -3.5712635382
 H        -7.5692004970       -0.8195996922       -3.3793865837
 H        -3.6759476728        5.1125070369       -5.2499055142
 H        -5.3529393458        4.5615576387       -5.8195355458
 H        -4.3093983422        3.3081609597       -4.9144539254
 H        -3.8866110737        3.7380933282       -2.2787779246
 H        -4.2008616318        5.2706492606       -1.6152315673
 H        -2.9135698685        5.1772919719       -2.9881302424
 H       -10.3145009246        8.7582392359        0.1976332733
 H       -10.1763761419        8.2325836087       -1.5360644422
 H        -9.2863447078        9.6357912547       -0.8162816089
 H        -6.4978294595        7.3683893724        0.4953196197
 H        -7.1658359901        8.9354074467        0.2845572070
 H        -6.4665176207        8.1966694871       -1.0725085226
 H       -10.6070038194        6.5839600302        7.2618523236
 H       -10.6561116702        4.8267155048        7.5492056174
 H       -11.7933896379        5.5612260334        6.4890595793
 H        -7.9166912103        5.7624896972        6.2920031819
 H        -7.8212025836        4.4209229009        5.3993527825
 H        -8.6529055404        4.4308158845        6.9445380639
 H       -14.1054466482        1.2143617256        4.9277595280
 H       -14.5344181861        0.1469331112        3.5551252923
 H       -15.8332653568        0.7029380756        4.5479500218
 H       -16.2503796725        1.8878234580        1.1405067961
 H       -16.2400690120        0.4754271341        2.2540852688
 H       -14.8806626592        0.8555398527        1.2302773881
 Na       -8.7588909262        3.6757371794       -1.2415835378
