117

 C       -17.0412398366        4.0997409441        2.4249489192
 C       -16.1977332128        3.4346834492        3.5074559882
 O       -16.0961593178        3.9817925225        4.6305460382
 C       -15.2250876919        2.1808590567        3.2051681245
 C       -13.7765844228        3.0224266597        2.9582367726
 O       -13.5070073514        3.3137939143        1.8250658457
 C       -12.7557155535        3.1241611331        4.0149592280
 C       -11.8333815542        4.3770194656        3.8958861389
 C       -10.5251339513        4.1491447255        4.7008233904
 O        -9.9205617369        3.1307679616        4.5420420545
 C       -10.0574718725        5.5115036505        5.4619032461
 C        -9.8277539559        6.7332878102        4.4340558845
 O       -10.2123860577        7.8905282934        4.5806208012
 C        -8.9693452825        6.3766603319        3.0963440970
 C        -9.4946293959        7.1221622104        1.8592719143
 C        -9.0431444263        6.4710219398        0.5771471438
 O        -8.9463475775        5.2763197955        0.5240912701
 C        -8.4324730064        7.4577019147       -0.6200943358
 C        -8.2233264359        6.7720915548       -1.9961755341
 O        -8.7892333060        5.7006065780       -2.3228253959
 C        -7.5850484459        7.6093416263       -3.0808538639
 C        -6.8551576529        6.7616897064       -4.2382808634
 C        -5.4907642917        6.3645307975       -3.9793332369
 O        -4.6203658698        7.1432888489       -3.8729774610
 C        -5.1146323776        4.7995877789       -3.8966211838
 C        -6.3920498746        3.9436029721       -3.4953767771
 O        -6.5968195690        3.8555506747       -2.2711685294
 C        -7.5324251305        3.3370628894       -4.2917685680
 C        -7.3018268126        1.7881940072       -4.4287053748
 C        -8.7723249281        1.2053735097       -4.6900955691
 O        -9.5441871215        1.8731861642       -5.3747053304
 C        -9.4265773289        0.0367684666       -3.8936045814
 C        -9.7903088168        0.7317919679       -2.4837328952
 O        -9.5044788184        1.8999915499       -2.3125590860
 C       -10.7955969484        0.0074979705       -1.5742586834
 C       -10.7256061573        0.8866058165       -0.3314405227
 C        -9.4453628545        0.9123873744        0.5783999706
 O        -8.6212911840        1.7994064853        0.5122154689
 C        -9.2017955613       -0.1012688316        1.7240116861
 C        -8.6759205396       -1.4394776641        1.1036293788
 O        -9.1149977980       -1.9302849759        0.1074096294
 C        -7.4299658902       -2.0760200955        1.6779601483
 C        -8.0349542655        0.6105147292        2.6316257610
 C       -10.4832712568       -0.3761558811        2.4752308253
 C       -10.8238788862       -0.2170380428       -4.4795199131
 C        -8.5083067953       -1.2242976923       -3.9112301804
 C        -4.3435101177        4.4927309741       -5.1833235275
 C        -4.1077860931        4.8159111265       -2.7471442298
 C        -9.5253315882        8.4878391734       -0.9210134710
 C        -7.1239782320        8.0722193340        0.0910005509
 C       -11.0677500000        6.1093270796        6.4161506395
 C        -8.7588976617        5.1079848015        6.2072613705
 C       -15.3448059845        1.3371362957        4.5333865543
 C       -15.5621810019        1.3756427603        1.9759303218
 H       -18.0168777636        3.7288926354        2.3874679821
 H       -16.7157612809        3.7848457234        1.4512147078
 H       -16.9338644880        5.1919635866        2.4591556595
 H       -12.2677295760        2.0666226741        4.0082075414
 H       -13.2757677249        3.3739032694        4.9927113588
 H       -12.5603493550        5.0515975199        4.3922464376
 H       -11.4695362323        4.5179629572        2.9051099588
 H        -9.0017023063        5.3730481856        2.8840592279
 H        -7.9647119957        6.7383320268        3.2932801599
 H        -9.3078256791        8.1546079626        1.8980737445
 H       -10.6817490414        7.1955193861        1.7363151632
 H        -6.9555351326        8.3964154323       -2.6958222779
 H        -8.3827554294        8.0964051696       -3.6936020779
 H        -6.9987450962        7.1866317737       -5.2942365917
 H        -7.4553480049        5.8307955252       -4.1764662562
 H        -7.5584752767        3.5913814070       -5.2911220124
 H        -8.5087891683        3.4749054304       -3.8517384321
 H        -6.9419592334        1.5512304877       -3.4523485576
 H        -6.7185381153        1.4008868259       -5.2618704689
 H       -10.5765236754       -1.0084249655       -1.2330717477
 H       -11.8051521028        0.1757592445       -1.9103991631
 H       -11.5876229754        0.7288499322        0.2641573473
 H       -10.6530658126        1.9115879654       -0.6645907629
 H        -6.6264247066       -1.4420635227        2.1168383215
 H        -6.9015641828       -2.7390254011        1.0447221164
 H        -7.9192292501       -2.7431423816        2.3982513808
 H        -7.8747472266        0.1768035302        3.5915073657
 H        -8.2907349957        1.6961704712        2.7902139740
 H        -7.0261274039        0.5095188910        2.0590967021
 H       -10.4167567633       -0.9220644835        3.3379185741
 H       -11.1484063815       -0.9824322879        1.8271749547
 H       -11.0095525851        0.5349655508        2.5821758022
 H       -10.8859442092        0.0351404013       -5.5655077400
 H       -11.5937091488        0.4163509393       -4.0066379620
 H       -11.1147244746       -1.2102845385       -4.3571228560
 H        -8.4994408046       -1.7737052707       -4.8832853289
 H        -8.7793835834       -1.9335367131       -3.1353994769
 H        -7.4630599600       -0.9582539937       -3.8349905057
 H        -3.6122849681        5.2758925707       -5.2476341303
 H        -5.0822515441        4.5464441766       -5.8935105028
 H        -4.0628598073        3.5136906989       -5.1297003306
 H        -3.7388096875        3.8261001456       -2.4806898724
 H        -4.5503849774        5.1411628996       -1.8122858526
 H        -3.3224036633        5.4121343981       -3.0698797027
 H        -9.9924330890        8.7519554507        0.0597972171
 H       -10.1922920326        8.2248752177       -1.7113922206
 H        -8.9477311472        9.4534264239       -1.2877045556
 H        -6.9513970076        7.5018663992        1.0744803419
 H        -7.0766280850        9.1846856365        0.2979975070
 H        -6.2889902220        7.7502090999       -0.4744927711
 H       -10.6462049212        6.9235727296        6.9263201931
 H       -11.4044755982        5.4322964590        7.1681469925
 H       -12.0240338642        6.3262121491        5.8898002979
 H        -8.1290453129        5.9095822094        6.7336491871
 H        -7.9605658977        4.7335755580        5.4969860134
 H        -8.9085079594        4.2524966168        6.7820239459
 H       -15.0409397736        1.9269047691        5.3344565527
 H       -14.8082870721        0.4343231739        4.6288824605
 H       -16.3733378171        0.9951161128        4.5314344990
 H       -15.0796773719        1.8548428716        1.0654257725
 H       -16.6736145404        1.3095681059        1.8763990428
 H       -15.1132959911        0.3620298214        2.1203687569
 Na       -8.5025979660        3.5860026707       -1.0944860564
