117

 C       -16.9487299775        4.2127198523        2.3350472146
 C       -16.0436884181        3.7394846228        3.5066144709
 O       -16.1123699628        4.2051783302        4.6324088212
 C       -15.2597300807        2.3980821289        3.3094033022
 C       -13.7823463724        2.9291330660        3.0500126799
 O       -13.6520940196        3.2633974001        1.8775401701
 C       -12.7631139820        3.0324225064        4.1207068489
 C       -11.9518418760        4.3608151033        3.8695076498
 C       -10.5277650987        4.3031691269        4.5143601788
 O        -9.7942774053        3.3180355465        4.5423010928
 C        -9.9835146448        5.5620964807        5.2899941225
 C        -9.7093467151        6.7268395439        4.3337903896
 O       -10.0978584709        7.8489506624        4.4673439064
 C        -9.0987503902        6.3104638503        2.9567959903
 C        -9.7243421555        7.1143839594        1.8239026987
 C        -9.0942957054        6.4892308434        0.4568653288
 O        -9.1039402048        5.2496315610        0.3777579643
 C        -8.4473589903        7.4762033257       -0.5323961305
 C        -8.1794832855        6.7383339837       -1.8955220468
 O        -8.6128114336        5.6035614365       -2.0667468127
 C        -7.5306775212        7.5795764355       -3.0399043563
 C        -7.1282775680        6.8271214474       -4.3176539235
 C        -5.5950494823        6.3494854831       -4.0152637035
 O        -4.7867665780        7.2119281052       -3.7220142644
 C        -5.1425070831        4.7502194052       -3.9173699530
 C        -6.3650452883        3.8825007290       -3.4613107536
 O        -6.5263850233        3.7742778655       -2.2799830434
 C        -7.3160607840        3.1916246030       -4.4544601018
 C        -7.3251546193        1.6490901677       -4.2851149990
 C        -8.8080998568        1.1964312005       -4.6558448208
 O        -9.4143264899        1.8531830988       -5.4379988045
 C        -9.4073395099        0.0786382675       -3.8083685483
 C        -9.7291116441        0.7823798569       -2.4668053240
 O        -9.3719914403        1.9400608322       -2.2909381557
 C       -10.6228343654        0.1157443305       -1.4571574490
 C       -10.8658207960        0.8723918759       -0.1007102441
 C        -9.4964046902        0.9745905092        0.6516349480
 O        -8.7691822325        1.9485623571        0.4639859917
 C        -9.0885584904       -0.0948905645        1.6311692236
 C        -8.5528682073       -1.4811163921        0.9503593811
 O        -9.2399837440       -1.9528267212        0.0446629656
 C        -7.3802184888       -2.2298889909        1.6486440295
 C        -7.9780873336        0.5356070856        2.5441329431
 C       -10.3463470452       -0.4969413501        2.5103676432
 C       -10.7940212516       -0.2581577969       -4.4310166288
 C        -8.6281152913       -1.2463664735       -3.7022733994
 C        -4.4274676071        4.2700594724       -5.2723194535
 C        -4.1452676027        4.5041008876       -2.7189696736
 C        -9.5541975639        8.5408272052       -0.9743212302
 C        -7.0934734246        7.9989983409       -0.0941420647
 C       -11.1502670391        6.1983249669        6.2878755055
 C        -8.8372766289        5.2884539173        6.2746515428
 C       -15.4026059112        1.5122222285        4.5387750373
 C       -15.5091501614        1.4930732193        2.1153918930
 H       -17.9053692526        4.3648705541        2.6469676051
 H       -17.0561398261        3.5083643367        1.5985360799
 H       -16.5319321078        5.0599664790        1.8019621903
 H       -12.1295689759        2.2605102672        3.8224282184
 H       -13.1682680274        2.8482531947        5.1985832456
 H       -12.5803143996        5.2019665479        4.2838920719
 H       -11.8302789670        4.2259650928        2.7868666430
 H        -9.1267609733        5.2805616536        2.7387176939
 H        -8.1602201184        6.6574552374        3.0834648117
 H        -9.8914943845        8.1216565358        2.0340242514
 H       -10.8435820098        6.7869963879        1.7448297415
 H        -6.5659912109        7.9327883835       -2.8046622325
 H        -8.0774242013        8.4531033891       -3.3419097588
 H        -6.9665785380        7.6200956192       -4.9948659336
 H        -7.8210179986        6.1015008687       -4.8058729114
 H        -7.0314717978        3.1964428157       -5.5231323939
 H        -8.3522479182        3.5220595215       -4.2749288458
 H        -7.1947315018        1.5410177712       -3.2033897728
 H        -6.5642666167        1.0835819616       -4.9494861235
 H       -10.1906772259       -0.8488406492       -1.0328200634
 H       -11.6164953427       -0.0296473385       -1.8582497345
 H       -11.4962638023        0.2375333157        0.4442815238
 H       -11.2350885888        1.9787719133       -0.2084957464
 H        -6.5144018593       -1.6890244624        2.0656828352
 H        -6.8770832096       -2.9110372756        0.9538671696
 H        -7.8785081490       -2.9492303125        2.2984345480
 H        -8.0763209600        0.1207893426        3.5698633919
 H        -8.0351065701        1.6028739957        2.5792552463
 H        -6.9782296663        0.3353436476        2.1755404069
 H       -10.0231426802       -1.1827271225        3.3146300310
 H       -10.9825716950       -1.1840720814        1.9727752781
 H       -11.0185602982        0.3458326144        2.7927453318
 H       -10.6333203405       -0.5013310913       -5.4784737176
 H       -11.4027669168        0.5779272345       -4.3841110926
 H       -11.2581979101       -1.0875452924       -3.9612053769
 H        -8.7914938513       -1.8469117626       -4.5858141403
 H        -9.0719179380       -1.8494857925       -2.8747455931
 H        -7.5144167231       -1.1696908032       -3.7151402211
 H        -3.6824417923        5.0557386204       -5.4584591030
 H        -5.2105488504        4.2221601311       -5.9721484603
 H        -4.1317411228        3.2456745941       -5.1714399220
 H        -3.7160224799        3.5304552548       -2.8531246660
 H        -4.5613621642        4.4656815625       -1.7811808763
 H        -3.3347017884        5.1692604846       -2.7910582188
 H        -9.9122362197        9.1833790917       -0.1816907092
 H       -10.3743749540        7.9522756493       -1.3828214991
 H        -9.1755269913        9.1004536108       -1.8862845704
 H        -6.6723205530        7.7306676604        0.9143118069
 H        -7.1921092356        9.0824745649       -0.1392984828
 H        -6.2983237679        7.6323840221       -0.8369437309
 H       -10.8099737303        6.9296381647        6.9647850199
 H       -11.6695362856        5.3679343552        6.8928076585
 H       -12.0095933585        6.4538644875        5.6953775141
 H        -8.7850716776        6.2020788716        6.8904401662
 H        -7.7969220116        5.2495707920        5.9937579690
 H        -8.9426974208        4.3217461164        6.8255428229
 H       -15.4663397625        2.1077436339        5.4174445396
 H       -14.4974333334        0.9126530998        4.7680407800
 H       -16.1296671370        0.7280639471        4.3346397364
 H       -14.6667367569        1.6435498384        1.3317070391
 H       -16.5048475651        1.6606484840        1.6158085744
 H       -15.3799123880        0.4154589931        2.4948296593
 Na       -8.4191654792        3.5460120483       -1.0065898918
