117

 C       -16.5056306257        4.5503802552        2.1101152650
 C       -15.9360913032        4.1278822202        3.4529280855
 O       -16.0217150420        4.7931122957        4.4891642477
 C       -15.2681265216        2.6717975405        3.4912005691
 C       -13.7865750581        2.9421132676        3.0637581300
 O       -13.6634356240        3.2294791351        1.8981287374
 C       -12.7598699098        3.1419399189        4.2220850345
 C       -11.9209394104        4.3352807291        3.9078837970
 C       -10.5196318512        4.5175000622        4.5675761519
 O        -9.6205995269        3.6832636215        4.5109028299
 C       -10.2223413985        5.8831458387        5.1436346163
 C        -9.8099842387        6.9898430857        4.2034596032
 O        -9.8677093916        8.1594977419        4.4786256773
 C        -9.2057275683        6.2750519141        2.7700023217
 C        -9.7863499760        7.0332726274        1.6097264344
 C        -9.3565281058        6.4047172141        0.2432227538
 O        -9.4955906706        5.2107343577        0.1313488837
 C        -8.6473477972        7.5038120437       -0.7287507620
 C        -8.2190003854        6.8395699690       -2.1342534692
 O        -8.3178098914        5.6084670836       -2.0856707482
 C        -7.7703801695        7.4977244434       -3.5674712279
 C        -6.9253294573        6.5090994991       -4.3115586154
 C        -5.5074670647        6.0607684349       -3.8216386367
 O        -4.8077031684        6.8808451103       -3.3201613375
 C        -4.9183650949        4.5895473433       -3.9918435563
 C        -6.0682331706        3.3978343972       -3.6324719603
 O        -6.3710330720        3.3029001967       -2.4598683361
 C        -6.9103835323        2.7216358218       -4.6402086036
 C        -7.3592765879        1.1855385898       -4.2556944237
 C        -8.8000462100        0.9090123038       -4.7310995212
 O        -9.1922644060        1.2934258744       -5.7875695391
 C        -9.7135304367        0.1313544192       -3.6750566665
 C       -10.0296016700        0.9272373742       -2.3567183443
 O        -9.6360963457        2.0332436978       -2.0873398757
 C       -10.9955565567        0.1998933759       -1.3696011223
 C       -10.7869454412        0.7474772754        0.1041862657
 C        -9.4381116136        0.8385314843        0.9471916324
 O        -8.8238756771        1.8795684038        0.9964997230
 C        -8.8767428985       -0.4246496009        1.8181936913
 C        -8.6013634524       -1.6029482719        1.0223957540
 O        -9.1567043971       -1.8244640524       -0.0302881237
 C        -7.2930985097       -2.4340367075        1.3454130120
 C        -7.6564738905        0.1907750415        2.5129096888
 C        -9.9694124325       -0.9157764202        2.8619809818
 C       -10.9553715316       -0.3857701427       -4.4898080779
 C        -8.7784408376       -1.0524415499       -3.1180984855
 C        -4.5519366239        4.6867637587       -5.5507184382
 C        -3.7079643243        4.5190021014       -3.1097737131
 C        -9.6500225135        8.6967658938       -0.9685328943
 C        -7.3152757468        7.8054103550        0.0272096565
 C       -11.4347178911        6.4273453630        6.0549364086
 C        -9.0047740974        5.7705847731        6.1520422528
 C       -15.4400536258        2.1170144737        4.8448932011
 C       -16.0514933842        1.6530532633        2.5552790946
 H       -16.0010144417        5.4542413713        1.7991991275
 H       -17.5706035475        4.8739259280        2.1275486925
 H       -16.4664407272        3.6335397862        1.3746064189
 H       -11.9930018361        2.3312978471        4.3451127369
 H       -13.4470078884        3.3419952643        5.1952868111
 H       -12.6258552339        5.2366743390        3.8782132745
 H       -11.7189185732        3.9495124639        2.9494786523
 H        -9.5338931273        5.2478074163        2.7771896322
 H        -8.0794172058        6.3113914424        2.9146437608
 H        -9.7406225588        8.0275078858        1.7502667409
 H       -10.9802783485        6.9260207137        1.8581908202
 H        -7.1793625990        8.3878954706       -3.2954321380
 H        -8.6782240064        7.7842970728       -4.2024415708
 H        -6.7471378365        6.9097691182       -5.3593289476
 H        -7.4752324742        5.5265635233       -4.4397041909
 H        -6.5861625357        2.6395245103       -5.6134352067
 H        -7.8382375887        3.1957031822       -4.4666987584
 H        -7.3757367642        1.0697271504       -3.2153513609
 H        -6.6318249780        0.5853559343       -4.7654045438
 H       -10.8420224175       -0.8817797928       -1.4612407410
 H       -12.0097103182        0.5117964567       -1.5787354016
 H       -11.4128540227        0.3661554571        0.7990217255
 H       -11.0693122245        1.8031228842       -0.0989328738
 H        -6.3718902073       -1.7962315175        1.2375508944
 H        -7.1718536549       -3.3898931947        0.8965529685
 H        -7.3438929638       -2.7361597241        2.3935266233
 H        -6.8982458756       -0.5675976593        2.7519254494
 H        -7.9722666831        0.5466124624        3.5089392482
 H        -7.4853630566        1.2244404154        2.1496594763
 H        -9.6758807596       -1.7940380120        3.3354131389
 H       -10.9766928749       -1.1426484948        2.5315400490
 H       -10.0270161073       -0.1100668501        3.5658296704
 H       -10.9553856508       -1.5571429227       -4.4724565889
 H       -10.8029691177        0.0178172805       -5.5391961407
 H       -11.8927672114       -0.0021070587       -4.0881054008
 H        -7.9283083821       -1.1992926805       -3.8043714107
 H        -9.2841749269       -1.9959990543       -3.1522496989
 H        -8.3427352333       -0.7442429041       -2.1797199206
 H        -3.6271981999        5.3416545425       -5.6287287707
 H        -5.3928737629        5.1183023470       -5.9499213738
 H        -4.5273227589        3.7160111621       -5.9889931472
 H        -3.2514572568        3.4507810672       -3.1245521139
 H        -3.9814546534        4.8161456712       -2.0681228719
 H        -2.8652206663        5.1470175551       -3.4595470693
 H        -9.6217176949        9.2526884231       -0.0490177374
 H       -10.6646386766        8.4215891105       -0.9755019518
 H        -9.3875875379        9.1224749746       -2.0089772495
 H        -7.4624792816        8.7051450848        0.6330638019
 H        -6.4863864908        8.0763261880       -0.5262904501
 H        -7.1539863116        7.0114823022        0.7277684384
 H       -11.0595724096        7.1476302861        6.6565828785
 H       -11.8959524971        5.6547104654        6.6838307072
 H       -12.3013559684        6.8368749074        5.4919735914
 H        -8.6894447751        6.8152917930        6.4594558284
 H        -8.0161042004        5.3380706280        5.9149269530
 H        -9.3853098767        5.1374296643        6.9172279833
 H       -14.9954064236        2.8597252335        5.4347362992
 H       -14.9622576180        1.1682438639        5.0335424483
 H       -16.4934106484        1.9148833040        5.1557069121
 H       -16.3048582816        2.0411103450        1.5451886518
 H       -16.9271182497        1.4785753974        3.1098949188
 H       -15.4416351579        0.7812477988        2.5384622753
 Na       -8.3213037092        3.5143598083       -0.8702893381
