117

 C       -16.3501760026        4.8003682999        2.1126606186
 C       -16.0091591951        4.2493569494        3.4905195839
 O       -15.9904034691        5.0015957286        4.3756764737
 C       -15.4295670009        2.6967853030        3.6396940944
 C       -13.9053253894        2.9681719105        3.0562920103
 O       -13.6123931332        3.0515481784        1.8721621808
 C       -12.8044228369        3.1884054547        4.0599617843
 C       -11.8024828041        4.4267760977        3.6681379849
 C       -10.5848891573        4.6203070634        4.6151649028
 O        -9.7565289978        3.6905207333        4.6129305900
 C       -10.1972605875        5.9506954789        5.3043888554
 C        -9.7179629160        6.9548957581        4.1496998022
 O        -9.8585356595        8.1421272613        4.3701371555
 C        -9.2658652277        6.5234101297        2.7293769936
 C        -9.8613945893        7.2573641672        1.5548506733
 C        -9.4286269474        6.5031037321        0.1519102316
 O        -9.6280814697        5.3006851174        0.0673752127
 C        -8.6546047942        7.4501636753       -0.7949318134
 C        -8.2748226366        6.6599868098       -2.1131111552
 O        -8.2486545431        5.4848126115       -2.1719869969
 C        -7.7961433634        7.3778501950       -3.4492975249
 C        -6.9745348517        6.4768267665       -4.3558128975
 C        -5.5588367417        6.0488184869       -3.7265651992
 O        -4.8852607947        6.8940294448       -3.0880106194
 C        -4.9622359742        4.5548097908       -4.0554952364
 C        -5.9421778947        3.4922975064       -3.6549056196
 O        -6.0189734887        3.2540073234       -2.4795904237
 C        -6.7691093235        2.6895241909       -4.7848860893
 C        -7.2729185031        1.3073318497       -4.3375702040
 C        -8.7566767440        0.9275371274       -4.6600765497
 O        -9.1445750827        1.0125966183       -5.7881523074
 C        -9.7037848918        0.0804694914       -3.6108651108
 C       -10.1767552320        0.8962590187       -2.3570223908
 O        -9.8115859419        2.0726936697       -2.1628900510
 C       -11.0556700828        0.2754627313       -1.1683498592
 C       -10.8324450336        0.7403294749        0.2903198762
 C        -9.4068372571        0.7776360409        0.9841865835
 O        -8.8374889784        1.8681537891        0.9266873008
 C        -8.8210704835       -0.3322123575        1.9107862608
 C        -8.5148427461       -1.5593974323        0.9037790262
 O        -9.1097510616       -1.8432171229       -0.1290860885
 C        -7.2818707708       -2.5647840896        1.1740573741
 C        -7.5202642001       -0.0217478660        2.7205637577
 C        -9.9175086391       -0.8984467985        2.9602130171
 C       -10.9751877607       -0.4461887329       -4.3482107479
 C        -8.8885497125       -1.1741988460       -3.0660803119
 C        -4.5772559953        4.6935960226       -5.6267409937
 C        -3.6553405965        4.2269371736       -3.2183112264
 C        -9.6221556271        8.6926661217       -1.1718204097
 C        -7.3549863502        7.7317776625       -0.0604007168
 C       -11.4623325918        6.5771376172        6.0401329614
 C        -9.0049476947        5.8977367493        6.2436936899
 C       -15.5299940474        2.2695595985        5.1863161589
 C       -16.0537421934        1.6272258004        2.6253383123
 H       -15.4224272121        5.2456211601        1.7679036282
 H       -17.0506302630        5.5785109452        2.0863450438
 H       -16.7326949394        4.0710834069        1.5331721926
 H       -12.2793556142        2.1935656184        4.0619887096
 H       -13.1468173794        3.5356809087        5.0473202228
 H       -12.5147360326        5.2066423192        3.9608305591
 H       -11.6211864113        4.3778988645        2.5659755185
 H        -9.2054016756        5.4752885534        2.6632272491
 H        -8.3197318543        6.9054619989        2.8060577926
 H        -9.6935348112        8.3903336439        1.7395100945
 H       -10.9136378801        7.2636690196        1.6747021509
 H        -7.3360072714        8.3330229681       -3.2054823627
 H        -8.7370928375        7.5615623612       -3.9882969464
 H        -6.5825012084        7.1208539141       -5.1462088360
 H        -7.5376783644        5.6045696134       -4.8663584790
 H        -6.1595293762        2.4639841396       -5.6540997007
 H        -7.6683413803        3.1804560082       -4.9491048642
 H        -7.1069030344        1.2090507292       -3.2819733993
 H        -6.6486437770        0.6117329450       -4.9157386577
 H       -10.9446285297       -0.8330138523       -1.0985995566
 H       -12.1090333304        0.4828806448       -1.3473164224
 H       -11.3726342583        0.1340988238        0.9900209468
 H       -11.2877219972        1.7642104226        0.3697319421
 H        -6.3278267244       -2.2106472162        0.7795268201
 H        -7.4782541039       -3.6451864360        0.9993328478
 H        -7.1392208113       -2.6589680594        2.2503936685
 H        -7.1086196562       -1.0063607731        3.0047856706
 H        -7.7864956998        0.3637498025        3.7070106316
 H        -7.0236042066        0.8090645372        2.3601781765
 H        -9.5454711888       -1.7880546745        3.5019645402
 H       -10.8043234977       -1.1773954220        2.5572626616
 H       -10.1072306347       -0.1644524728        3.7187425559
 H       -11.2646758997       -1.4421674175       -4.0536042402
 H       -10.7644499878       -0.3604832363       -5.4074349023
 H       -11.7983930095        0.2874278709       -4.0944383058
 H        -7.9841587355       -1.2967151090       -3.6096581932
 H        -9.4966806784       -2.0219196634       -3.3732391214
 H        -8.7008201350       -1.0864303321       -1.9712848369
 H        -4.0019491660        5.5562779401       -5.5598942100
 H        -5.4548687648        4.8397789828       -6.2049426135
 H        -4.0041530898        3.8777771963       -5.9735119954
 H        -3.3092096649        3.2425209658       -3.4871106891
 H        -3.8115336436        4.3268076680       -2.1661024816
 H        -2.7948314570        4.8703161418       -3.5226430072
 H        -9.9878722264        9.1444538685       -0.2599679667
 H       -10.6017759036        8.2681829747       -1.5567093960
 H        -9.1711870846        9.2024967817       -1.9784487198
 H        -7.2270481260        8.6890364111        0.3858323608
 H        -6.4688779441        7.6810149946       -0.6974196582
 H        -7.2943918616        6.9256560367        0.7709924299
 H       -11.3363220318        7.5503428695        6.5851744854
 H       -11.8410274531        5.7958591610        6.7362578498
 H       -12.2370860786        6.7263057875        5.3493225668
 H        -8.6680115491        6.9189121822        6.2321711285
 H        -8.0774069824        5.3750969170        6.0176244830
 H        -9.2798626005        5.4979683082        7.3299000894
 H       -14.9061539787        2.8887812889        5.8034687004
 H       -15.3837389062        1.2247882958        5.3513210896
 H       -16.5448644000        2.4697837510        5.5428320578
 H       -16.0678169721        2.1392600915        1.6540397978
 H       -17.0618918859        1.2810372536        2.9517885323
 H       -15.3073474038        0.7784870848        2.6433751831
 Na       -8.3209208610        3.3896386339       -0.8763442932
