117

 C       -15.6534235845        5.2625450171        1.9215594011
 C       -15.7427424405        5.0310110264        3.4433505623
 O       -15.7223956679        5.9268414198        4.2486348216
 C       -15.5438086871        3.4103994760        3.8737694385
 C       -14.0448523051        3.0294172111        3.3552369594
 O       -13.8645149029        2.2167846161        2.5277122124
 C       -12.9534514679        3.8891897781        4.2113093187
 C       -11.9056578000        4.7261993012        3.5679556324
 C       -10.6315357804        5.0658032452        4.5848675771
 O       -10.1035061491        4.0676070621        5.0662952074
 C       -10.2568641981        6.4692955271        4.9956418330
 C        -9.9036271282        7.3470822628        3.7937563711
 O       -10.2976464660        8.4791615384        3.5904067647
 C        -9.2859123880        6.5747452947        2.5530714344
 C       -10.1272239409        7.0002543511        1.2813850371
 C        -9.3904559857        6.2484288530        0.0893890425
 O        -9.6538933858        5.0633678295        0.0555006824
 C        -8.5712332024        7.2165382355       -1.0073289045
 C        -8.2671932286        6.3960998198       -2.4030167618
 O        -8.4187527537        5.2197957980       -2.2874168333
 C        -7.7056998176        7.1729355681       -3.6032007240
 C        -6.8418783399        6.2451457941       -4.5121488481
 C        -5.8340691938        5.4876957558       -3.7163604515
 O        -5.5539706541        6.0009411066       -2.6609239043
 C        -5.0871220012        4.1184586268       -4.1254240780
 C        -5.8465032776        2.9754098912       -3.4252785220
 O        -5.9744491967        3.2087805457       -2.1975743018
 C        -6.5956088980        1.8772250717       -4.2142947479
 C        -7.4553501579        0.9395109766       -3.4397516448
 C        -8.7565379337        0.6169149146       -4.1665527472
 O        -8.9893275058        1.0473271309       -5.2627103691
 C        -9.8524431046       -0.0874239941       -3.3791569757
 C       -10.1864431371        0.9537217457       -2.1228681312
 O        -9.9325908026        2.1268712211       -2.2124814991
 C       -10.8871861680        0.4553861940       -0.8826630070
 C       -10.2022814666        1.2706242118        0.3464432525
 C        -8.7601952233        0.6598815110        0.6545329064
 O        -7.8144021137        1.1280216921        0.0296956350
 C        -8.5300295881       -0.4999754175        1.6534865477
 C        -8.2301203935       -1.9301579646        1.0230233474
 O        -8.9995191771       -2.4129122939        0.2057560235
 C        -7.0789419787       -2.8446834407        1.4093687670
 C        -7.3210821967       -0.0083725792        2.5324265421
 C        -9.8352551542       -0.6311966163        2.5327415351
 C       -11.0529633300       -0.3020168809       -4.4188368492
 C        -9.3642585058       -1.5202508526       -2.9089485631
 C        -5.1935352825        4.0417768888       -5.6724688947
 C        -3.5959922094        4.0417257731       -3.6253751398
 C        -9.5426685948        8.4335771203       -1.3727381015
 C        -7.3046815052        7.8478884178       -0.5469575690
 C       -11.5875656903        7.0501760655        5.7265912721
 C        -9.0033986428        6.5253013044        5.8655772341
 C       -15.7819615400        3.4007028983        5.4375017887
 C       -16.4992860130        2.4173786072        3.0919853306
 H       -16.1891916556        4.4667634090        1.3668561422
 H       -14.6335993107        5.0855073448        1.7279559455
 H       -15.7048807325        6.2706523724        1.5713164311
 H       -12.4040087576        3.3980724857        4.8983274849
 H       -13.5064373003        4.6419225882        4.8364487571
 H       -12.1178862627        5.4829464896        2.7447860310
 H       -11.3788676024        3.9731055041        3.0207741051
 H        -9.3380717974        5.5279124622        2.5518459694
 H        -8.1830920699        6.6255863182        2.4797414454
 H       -10.1342572075        8.0465862017        1.0673585361
 H       -11.0721951929        6.3949289238        1.2854816232
 H        -7.1312241525        7.8965235045       -3.1096387878
 H        -8.5711422140        7.5957896934       -4.0946103221
 H        -6.3019571655        6.8779982432       -5.2297703995
 H        -7.4380176350        5.5816125707       -5.0689275476
 H        -5.8864817333        1.3299333956       -4.8607175440
 H        -7.1641228309        2.4845712444       -5.0582673799
 H        -7.4970530037        1.2873726705       -2.3596737081
 H        -6.7522160686        0.0530002774       -3.3613058090
 H       -10.9543528868       -0.6351252898       -0.7405484728
 H       -12.0038487385        0.5516959312       -0.7995603454
 H       -10.8060345933        1.3266741463        1.2023819669
 H       -10.1604487217        2.3829634993        0.0061069786
 H        -6.1666637005       -2.2684178547        1.7187491359
 H        -6.8392179797       -3.5882046520        0.6683221095
 H        -7.2008668307       -3.4475894277        2.3209987425
 H        -6.8869129288       -0.9041106896        3.0484971491
 H        -7.7420247352        0.7158776621        3.2030114300
 H        -6.6147998904        0.4341737613        1.8060024921
 H        -9.8040125778       -1.4651578212        3.2064776869
 H       -10.7889948356       -0.5740436007        2.0268826386
 H        -9.8290995870        0.2335956310        3.2311276426
 H       -11.4194145663        0.6888100745       -4.6744926846
 H       -11.8003386404       -0.8909388261       -3.9313857107
 H       -10.6116331232       -0.7624184348       -5.2280523426
 H        -9.4717111376       -2.0522290972       -3.8729676743
 H        -9.9921140262       -1.8863984386       -2.1121830181
 H        -8.3893105828       -1.4963167444       -2.4762961317
 H        -4.6142233862        4.8471478992       -6.2198864362
 H        -6.2157326122        4.1881244875       -5.9789186401
 H        -4.9013636001        3.0437163992       -6.0616264762
 H        -3.2813964973        3.0035466925       -3.5384175150
 H        -3.4622651147        4.4705285595       -2.6876223748
 H        -2.9292428811        4.5427281175       -4.2514800471
 H        -9.2489328650        9.2025564436       -0.7157140416
 H       -10.5620188795        8.2600192335       -1.3841295677
 H        -9.1141176465        9.0082341079       -2.2201184989
 H        -7.3729471853        8.4246094921        0.4348884539
 H        -6.9381471475        8.5781671686       -1.2757544860
 H        -6.3976415851        7.2137186233       -0.6102647087
 H       -11.6409384723        8.0630786424        5.9998449828
 H       -11.8994425402        6.3555830207        6.5738691808
 H       -12.3505043611        7.0793507824        4.8849807088
 H        -8.9199332672        7.4080846492        6.5345708031
 H        -8.0901982706        6.3319042681        5.2964726442
 H        -9.1477319161        5.7594738624        6.6193662035
 H       -15.4183224796        4.3096810322        5.8486753767
 H       -15.0575825345        2.6928118034        5.7971107429
 H       -16.8091784436        3.3531412024        5.7831024188
 H       -16.2511485050        2.4070935243        1.9378083863
 H       -17.5198189037        2.6017282965        3.4747039425
 H       -16.2399693088        1.4370624052        3.5801153046
 Na       -8.3253709939        3.4032692854       -0.8550750275
