117

 C       -15.6010647889        5.8844126558        1.7610176316
 C       -15.3369999291        5.6039670148        3.3156766836
 O       -15.1366104239        6.5580993958        4.0483546567
 C       -15.6754280092        4.2024422518        3.9859484521
 C       -14.1962434985        3.5771429861        4.3456750944
 O       -13.9114895614        2.5935029341        3.7538819639
 C       -13.1110769628        4.3492704662        5.2051060267
 C       -11.9796276470        4.7478628223        4.1253469894
 C       -10.7178204486        5.2822270085        4.7128246545
 O        -9.7172816859        4.6029481645        4.9076619988
 C       -10.5451806803        6.9178833401        4.9967615107
 C       -10.5865955978        7.3240510197        3.4123210125
 O       -11.3096697751        8.1568834051        2.9990949304
 C        -9.5653250192        6.6486153411        2.3720318666
 C       -10.0639232874        6.6006807969        0.9003149932
 C        -8.9061799542        5.9941609930       -0.0420091726
 O        -8.4441318542        4.8778076051        0.1296173882
 C        -8.5143271364        6.8937271727       -1.2725173853
 C        -8.5509429374        6.0844562680       -2.5773411038
 O        -9.2151768003        5.0334584928       -2.5965792626
 C        -7.7458255834        6.4727723219       -3.8664170743
 C        -7.0403752634        5.2005723718       -4.4282264322
 C        -5.7276128710        4.8934099186       -3.8229398848
 O        -5.4073607518        5.5539340119       -2.8744019552
 C        -5.0484045388        3.4236070497       -4.2599627850
 C        -5.8525524531        2.3221603767       -3.4885993231
 O        -6.4586034786        2.8127444082       -2.5653087600
 C        -6.1304821877        0.9993183031       -4.0380724573
 C        -7.1996515078        0.2635047439       -3.3074847466
 C        -8.5411086216        0.5074271894       -4.0847786448
 O        -8.6719673053        1.1825823210       -5.0446987714
 C        -9.8130186313       -0.0207500440       -3.3018626840
 C       -10.1559538807        0.9080167694       -1.9693543650
 O       -10.0618154547        2.1108843541       -2.0688465789
 C       -10.8367082312        0.2629094008       -0.7570127518
 C       -10.3040364492        1.0846455175        0.5537690280
 C        -8.7868770133        0.7357009096        0.7748237029
 O        -7.9673046447        1.2015730483        0.0121213497
 C        -8.2862618652       -0.3402134275        1.8161193043
 C        -8.0641309860       -1.5950762108        0.9883970285
 O        -8.7639988408       -1.8293882251        0.0551205599
 C        -6.9866935751       -2.5151141525        1.4495290634
 C        -6.9727902232        0.2578181504        2.5319472214
 C        -9.2342937227       -0.7273487424        3.0026949012
 C       -11.1479356817        0.1649080338       -4.1585963555
 C        -9.6308103487       -1.5298149589       -2.9483771994
 C        -4.9350686273        3.0352200734       -5.7232551917
 C        -3.5507347376        3.5971587961       -3.7138026486
 C        -9.6959149452        7.9908120904       -1.5004352063
 C        -7.2088929013        7.5403367793       -1.1614841331
 C       -11.6621735027        7.4384604833        5.7649266214
 C        -9.1586058285        7.3995339402        5.6417250022
 C       -16.5328887376        4.4562247173        5.2134012615
 C       -16.4779399716        3.2211687640        3.0640042968
 H       -16.6813624178        5.9944405849        1.9343299470
 H       -15.2145303115        5.0284301936        1.1670394092
 H       -15.2786810294        6.9036238952        1.2263688537
 H       -12.6733861604        3.8954567635        6.0536080022
 H       -13.7557384525        5.3057532584        5.6300539288
 H       -12.4292572747        5.4264609934        3.4021616522
 H       -11.9397144542        3.7844764425        3.4855328682
 H        -9.1749005537        5.6668426689        2.8399709225
 H        -8.6825344899        7.3902081690        2.3872427732
 H       -10.3382614878        7.5275964805        0.6559405874
 H       -10.9763979627        5.8582768780        0.8771733724
 H        -6.9613966782        7.2671721066       -3.6320814288
 H        -8.4140825238        6.9033232814       -4.5905768257
 H        -7.0709556243        5.4485486232       -5.4399348868
 H        -7.5018076407        4.2496649971       -4.3544971209
 H        -5.2119568966        0.4703157056       -4.4115083559
 H        -6.3974705449        1.2366819507       -5.0354054502
 H        -7.3534019618        0.6514996420       -2.2693928158
 H        -6.8828511513       -0.7525019946       -3.0539652189
 H       -10.7002750854       -0.8325766281       -0.5944725817
 H       -11.9512733381        0.2408915423       -0.7643856607
 H       -11.0600976667        0.7660684859        1.3586384762
 H       -10.2652529459        2.0998284643        0.3604303919
 H        -5.9764369152       -2.1529347764        1.5762956459
 H        -6.8276978996       -3.4249122990        0.8912244705
 H        -7.1743003938       -2.7454604026        2.5193009751
 H        -6.3295518147       -0.4095957283        2.9748354338
 H        -7.3828581181        1.0698720446        3.1034388081
 H        -6.3452465213        0.5161922010        1.6484014920
 H        -8.7441367702       -1.4964212261        3.6023639388
 H       -10.2210323131       -1.2392532490        2.6749544317
 H        -9.4501863138        0.1572696326        3.6384019803
 H       -11.1773199310       -0.5885229256       -4.9126749952
 H       -11.1759633901        1.1735461272       -4.5680029096
 H       -11.9362845582       -0.0114334167       -3.4989940836
 H       -10.0627665210       -2.1002387223       -3.7963898085
 H       -10.0929814620       -1.8096579835       -2.0095981725
 H        -8.5785147497       -1.7113437786       -3.0097012693
 H        -4.1118812824        3.6630034627       -6.3110942504
 H        -5.8326872065        2.9769218589       -6.3929878074
 H        -4.5669701880        1.9574496353       -5.9118267229
 H        -2.8850952757        2.8175110442       -3.9502684532
 H        -3.6338073443        3.6182754932       -2.6532920725
 H        -3.1182616146        4.4511623789       -4.0603647784
 H        -9.5533946338        8.7687896712       -0.7754155411
 H       -10.6950581674        7.7648782132       -1.5415383349
 H        -9.4714022741        8.3242972028       -2.5326867323
 H        -6.9446599543        7.9314341599       -0.1328334501
 H        -7.0804713693        8.4411492427       -1.8383069086
 H        -6.3970495421        6.8994136310       -1.3273909653
 H       -11.3179186761        8.3793377349        6.1662088117
 H       -12.0451546862        6.8311241798        6.5884841858
 H       -12.6434946285        7.4979070533        5.1639258680
 H        -9.0889696796        8.4590890440        5.8714203294
 H        -8.3924601758        7.0811364153        4.9021614527
 H        -8.9451932007        6.8890893116        6.4812612494
 H       -17.0044400855        3.4642522742        5.4096850347
 H       -17.2668162766        5.1566021803        4.8368985586
 H       -16.0873438756        4.9420640248        6.0971488710
 H       -15.8138423725        2.3793394867        2.8117998200
 H       -16.9270643824        3.8200412249        2.2383580683
 H       -17.1643364861        2.7148773381        3.7588591064
 Na       -8.4828913745        3.3276394761       -1.1992745765
