117

 C       -15.4742989044        6.2105408452        1.7251855911
 C       -15.2936693270        5.9418598082        3.2479244754
 O       -14.6248668160        6.6559624659        4.0125350578
 C       -15.5416953376        4.6135252358        4.0023001997
 C       -14.2961335581        3.8384557623        4.4973889979
 O       -14.3427531776        2.6018760932        4.4120527381
 C       -13.1980955874        4.5894494392        5.1750973720
 C       -11.9777478759        4.7771162758        4.1311814671
 C       -10.8860726215        5.4687530000        4.8325356180
 O       -10.0922998313        4.7481869934        5.4429177877
 C       -10.7082414349        7.0280874987        4.7168798701
 C       -10.7149915563        7.2799642260        3.2099264455
 O       -11.6595001739        7.7300732651        2.6335164319
 C        -9.3813061777        6.9940731428        2.3139085903
 C        -9.8678968848        6.9715568464        0.8727212500
 C        -8.9094429263        6.1574339955       -0.0365201218
 O        -8.1719791774        5.2655841567        0.4275140315
 C        -8.5379475912        6.7364164965       -1.4987295077
 C        -8.4448865463        5.5757190270       -2.4979014416
 O        -9.2949421565        4.6812036836       -2.3154617669
 C        -7.8675757588        5.9264290877       -3.8951750575
 C        -6.9800495633        5.0155562389       -4.7335908441
 C        -5.7029388160        4.6438634925       -3.9850022621
 O        -5.2849768792        5.2487762929       -3.0363677219
 C        -5.0800744998        3.2740651418       -4.4163097718
 C        -6.0710947875        2.1532218166       -3.7077644259
 O        -6.8699978587        2.5803199671       -2.9416696302
 C        -6.0185978283        0.5268009220       -3.5911023628
 C        -7.3666692536       -0.0895281815       -3.2245980950
 C        -8.5524092809        0.4015045907       -3.9205913210
 O        -8.5431175317        1.1466242419       -4.8308110476
 C        -9.9834037512       -0.1756370936       -3.3083053572
 C       -10.2909785207        0.6413027360       -1.9329047352
 O       -10.2553273298        1.8891131977       -1.9441666312
 C       -10.8476443241        0.0008266118       -0.6382051502
 C       -10.4049437554        0.8566682327        0.6210307983
 C        -8.8492957584        0.9061984932        0.9475796447
 O        -8.1904400225        1.8392406004        0.5952459290
 C        -8.1498821825       -0.2235315676        1.8460477927
 C        -7.8727739594       -1.5735075600        0.9484273236
 O        -8.2933939069       -1.6276368638       -0.1656202460
 C        -6.8319350638       -2.5451645778        1.5524637263
 C        -6.8568461743        0.3910610762        2.4114013521
 C        -9.0718052854       -0.5126814928        3.0369245615
 C       -11.0362656258        0.2505829940       -4.3988865278
 C        -9.9355531896       -1.6759703523       -3.0366859448
 C        -4.8103601161        3.2727640235       -5.9903259886
 C        -3.7080806090        3.0500189642       -3.5474159615
 C        -9.4826044837        7.8531883250       -1.9187717117
 C        -7.1467210891        7.4174920309       -1.2090869987
 C       -11.7676681155        7.8578560435        5.3896879013
 C        -9.3283948277        7.4322233807        5.3564326571
 C       -16.2760961436        4.8443380554        5.3417953217
 C       -16.5305687400        3.6614383336        3.2543731213
 H       -16.4303244606        6.4619434363        1.5751244518
 H       -15.0066394239        5.5157967039        1.1238876664
 H       -15.1170686536        7.2626329583        1.6402133038
 H       -12.8209532184        4.0321785362        6.0554869354
 H       -13.5490502979        5.6690205688        5.6511720716
 H       -12.4429610733        5.2900207391        3.3799697495
 H       -11.6894729103        3.7775474654        3.7973042993
 H        -8.8478220573        6.0194744339        2.5380299211
 H        -8.8019964952        7.8478035141        2.3515999092
 H       -10.1599399503        7.8467720945        0.5255618709
 H       -10.9683735585        6.5027900272        0.8923079041
 H        -7.4019581488        6.8809861867       -3.6744476714
 H        -8.7406771975        6.2647140500       -4.3979865925
 H        -6.5031557391        5.6012273133       -5.5448150498
 H        -7.5809568775        4.2131301820       -5.2665773029
 H        -5.1906157021        0.1711687931       -2.9265348438
 H        -5.5205721172        0.1278274482       -4.4854022994
 H        -7.5407134069        0.1282678313       -2.1774431030
 H        -7.2622888814       -1.2215546555       -3.1031827182
 H       -10.5719658874       -1.0982095938       -0.5757804323
 H       -11.9696815611       -0.0402739283       -0.7025469164
 H       -10.9515518750        0.4301438368        1.5718599544
 H       -10.7524140065        1.8220896461        0.3362313596
 H        -6.2938181471       -3.0816353095        0.7795166915
 H        -7.2169648177       -3.4561346282        2.0455614064
 H        -6.0747188260       -2.1051736798        2.2076247874
 H        -6.5212144349       -0.2337563293        3.1977308331
 H        -7.2255924416        1.3383323066        2.9004622439
 H        -6.0823609767        0.5150970529        1.5994179988
 H        -8.5811822858       -0.9661454253        3.8295915861
 H        -9.9546510600       -1.1226294847        2.8059549541
 H        -9.3771480061        0.4013849908        3.4056630218
 H       -11.6276773993       -0.6303490172       -4.7274436782
 H       -10.5421895121        0.7187912939       -5.2936673012
 H       -11.6471324125        1.0611103328       -3.9049788917
 H        -9.2310309545       -2.1326075042       -3.6913128591
 H       -10.9023131888       -2.0872718528       -3.3558210327
 H        -9.5913632207       -1.9690666199       -2.0270675373
 H        -4.3506168037        4.1545309286       -6.4124511357
 H        -5.5217824509        3.0702626990       -6.7034764359
 H        -4.0798111199        2.5670231198       -6.2123775180
 H        -3.6583679138        2.1044978466       -2.9525161895
 H        -3.6532102730        3.9260561672       -2.7710612043
 H        -2.7725257927        2.9543629141       -4.1456376484
 H        -9.6540812764        8.5471846607       -1.0846476221
 H       -10.5090624522        7.4294393395       -1.9279123121
 H        -9.3315244656        8.2158320353       -2.9377650634
 H        -7.0698648972        8.3487992874       -0.6572273048
 H        -6.8840203182        7.7927419730       -2.2389250789
 H        -6.3811185493        6.8897957082       -0.7478382750
 H       -11.5949719381        8.8890602294        5.0755283482
 H       -11.5766846525        7.8735043948        6.4240169967
 H       -12.8351156221        7.5148722166        5.3123343244
 H        -8.8706694405        8.3749619910        4.9394423854
 H        -8.7284373722        6.5898894491        4.8287053525
 H        -9.1599895692        7.1670757396        6.3493196105
 H       -16.2408379985        3.8607367858        5.8431153523
 H       -17.2225413181        5.2524787324        5.1141520046
 H       -15.7372674293        5.5705659407        5.9031513978
 H       -15.9237209635        3.4230331020        2.3919866611
 H       -17.3195665822        4.3811819041        2.9147357492
 H       -16.8120293531        2.8795532245        4.0227422873
 Na       -8.2299239822        3.1750046691       -1.3478825149
