117

 C       -15.3639680457        6.3038415564        1.8501756699
 C       -15.0849335170        6.1197098339        3.2966809004
 O       -14.4971400538        6.9895276372        3.8688910846
 C       -15.5849282583        4.7177358520        3.9994338044
 C       -14.3617180145        3.7730069634        4.5674665227
 O       -14.3862859077        2.6059860574        4.5762532373
 C       -13.2919866102        4.4498697705        5.2703149702
 C       -12.1256096564        4.7739801329        4.2288982631
 C       -10.9587786558        5.4636399872        4.9198235739
 O       -10.2379272813        4.8398891963        5.6687882137
 C       -10.6125294563        7.0572282282        4.5978624731
 C       -10.6930628562        7.4162576230        3.0550062313
 O       -11.7798199306        7.5763231307        2.5537626739
 C        -9.4563239631        7.1249650308        2.2386170037
 C        -9.7220837417        7.0028031797        0.7445798073
 C        -8.6653378827        6.1903576742       -0.0777773075
 O        -8.3604609231        5.1075970607        0.3554006254
 C        -8.4058132935        6.7632523802       -1.4958869095
 C        -8.5206209403        5.6879340064       -2.5646319226
 O        -9.1508186347        4.7054685445       -2.3606809872
 C        -8.0471663002        6.0374719848       -4.0435454913
 C        -6.9733424246        5.1377873734       -4.7605862825
 C        -5.7512906220        4.5686948802       -3.9585755165
 O        -5.1413883875        5.3193734673       -3.2297056323
 C        -5.1329561973        2.9814227993       -4.3164166821
 C        -6.1653537806        1.8873197690       -3.6889583798
 O        -6.9341101113        2.5125623498       -2.9581608235
 C        -6.0239344796        0.4217276188       -3.6318288979
 C        -7.2901786465       -0.3509865040       -3.1820368230
 C        -8.5966473327        0.3505652585       -3.8260272633
 O        -8.4063544451        1.1213725387       -4.7493823168
 C       -10.0404442110       -0.1177577421       -3.3322437862
 C       -10.2991921270        0.6576936098       -1.9245791857
 O       -10.1557543081        1.8457495141       -1.8259250262
 C       -10.7546555513       -0.0757624264       -0.6889173928
 C       -10.3711302847        0.8243710493        0.5254860848
 C        -8.8831523887        0.8672122091        0.9669971369
 O        -8.3206925718        1.9172779728        0.7433509189
 C        -8.2330139951       -0.1816916621        1.9109030249
 C        -7.7031336282       -1.4021410088        0.9879118642
 O        -8.0313424531       -1.5731133424       -0.1732691325
 C        -6.8403926024       -2.4932080075        1.5943750118
 C        -6.7577923862        0.2939252188        2.3801176648
 C        -9.0637669988       -0.5380583833        3.1141640460
 C       -11.0785975745        0.1592112404       -4.4334803249
 C       -10.0451347668       -1.7228940683       -3.1630767608
 C        -4.9966598931        3.1759032960       -5.7337057394
 C        -3.8241397527        2.8391585960       -3.5265918679
 C        -9.4769446609        7.7355882018       -2.1352223307
 C        -6.9744371716        7.4181404441       -1.5034485749
 C       -11.8113575568        7.8979734180        5.3248710928
 C        -9.2928889538        7.5350168718        5.3081998554
 C       -16.2514023216        5.0331169779        5.4333872555
 C       -16.6857996783        3.7099537465        3.2411476206
 H       -16.4755962728        6.5171364456        1.9269211113
 H       -15.0804155081        5.4375861694        1.2947100366
 H       -15.0712621151        7.2576364071        1.5174327440
 H       -12.7970917563        3.8031110030        6.0247461672
 H       -13.5917402372        5.3957484466        5.8404384039
 H       -12.6424709043        5.2573466157        3.3896727530
 H       -11.7097774846        3.7734703609        3.9839894409
 H        -9.2380716331        6.1082752355        2.5895575276
 H        -8.6055769684        7.9285547377        2.3665287819
 H        -9.9410100935        8.0257820997        0.2820836625
 H       -10.7871128031        6.7257254389        0.6312096514
 H        -7.8451521503        7.1070890253       -3.9709503024
 H        -8.9219656481        6.0566700133       -4.6177534148
 H        -6.4364249448        5.6590786646       -5.5207198932
 H        -7.5863508264        4.4324591746       -5.2411753850
 H        -5.1164240234        0.3311237101       -2.9370431778
 H        -5.4281031988       -0.0115231900       -4.4292262619
 H        -7.2331563847       -0.6377278818       -2.0793523920
 H        -7.1891692281       -1.3680320842       -3.5991376605
 H       -10.3088396465       -1.0812860482       -0.5473403972
 H       -11.8567557425       -0.3278265324       -0.9177286441
 H       -10.8053384754        0.3494251107        1.4488020585
 H       -10.7450003074        1.8193989639        0.3131232189
 H        -6.6682201402       -3.4515406339        1.0647135183
 H        -7.2135761901       -2.8933755454        2.5143265716
 H        -5.8503759710       -2.0535499056        1.8630011693
 H        -6.4803677745       -0.3882101970        3.1435964788
 H        -6.8839030469        1.2271902141        2.9174030029
 H        -6.0717128656        0.3931117509        1.4840008707
 H        -8.5378242312       -1.2910530016        3.6091246381
 H       -10.1018170087       -0.7507120708        3.1133277426
 H        -8.8979847199        0.2742825541        3.7954380672
 H       -11.7982725565       -0.6677732665       -4.4541243143
 H       -10.6690450835        0.3282086354       -5.4747459520
 H       -11.5486835156        1.0320132761       -4.1253424124
 H        -9.1230843211       -2.2269764909       -3.5649076558
 H       -10.8450749005       -2.1580105955       -3.7230408135
 H       -10.0493882049       -1.9998019362       -2.1463521065
 H        -4.4682866294        4.1042965785       -6.1156291766
 H        -5.9041029375        3.2398112835       -6.3439578270
 H        -4.4122919246        2.4295674270       -6.3317420857
 H        -3.8592218491        1.9063866502       -2.9116218346
 H        -3.6654656333        3.6595936429       -2.8253765366
 H        -2.9516874967        2.6452162672       -4.0999208198
 H        -9.8991664871        8.5120995181       -1.5284723429
 H       -10.3298809616        7.2252756856       -2.4006317831
 H        -9.0640121321        8.0416649828       -3.1351330167
 H        -6.7298562943        8.4503063059       -1.0319749941
 H        -6.5735192113        7.5530559854       -2.5213351741
 H        -6.2662528087        6.8502846844       -0.8817227131
 H       -11.6472382238        8.9124279165        5.0090564128
 H       -11.9180676101        7.9187447159        6.4631849465
 H       -12.8243397619        7.5321008084        4.9109950327
 H        -8.9110360188        8.4938929529        4.9037142273
 H        -8.5031118606        6.7891295756        5.0611897679
 H        -9.3730163142        7.3157724178        6.3395268631
 H       -15.9183485925        4.3731872923        6.1933342403
 H       -17.2809714868        5.1218809903        5.2824005643
 H       -15.9206346409        6.0134883184        5.6549909496
 H       -16.4891024480        3.8431082913        2.1143845248
 H       -17.6804472497        4.0895227917        3.5462437189
 H       -16.3996991479        2.7816059624        3.7986911909
 Na       -8.2764324505        3.2495293767       -1.1998775191
