117

 C       -14.9143943582        5.8867303953        2.0422046105
 C       -15.0001412544        6.2343977786        3.5570187075
 O       -14.7820935568        7.3032718025        4.0889716176
 C       -15.8873683535        5.2030883410        4.4781666502
 C       -14.7306336721        4.2128510384        4.8300431214
 O       -14.6843381444        3.0395280830        4.3825593961
 C       -13.4671726332        4.9650934778        5.4147171721
 C       -12.2977585985        5.0987569254        4.4034810129
 C       -11.0951564338        5.8921914740        5.0377248414
 O       -10.6169690861        5.6691750054        6.1440461916
 C       -10.5513530428        7.2349439475        4.3188356490
 C       -10.5163330297        6.8636242645        2.7530823292
 O       -11.5686674988        6.8595314158        2.1207832057
 C        -9.1653416373        6.8870318302        1.9688459880
 C        -9.2759456631        7.5840711028        0.5696606382
 C        -8.7673257775        6.6796726053       -0.5239872231
 O        -8.8738092260        5.4794105107       -0.2164952895
 C        -8.2628859972        7.1570456022       -1.9759647967
 C        -8.3461395945        5.8967717815       -2.9688505319
 O        -8.9833295443        4.8454951394       -2.7068504633
 C        -7.8344527429        5.9573859585       -4.3676830082
 C        -7.3458829584        4.5613139397       -4.8189344676
 C        -6.0030680347        4.1340613579       -4.1809535335
 O        -5.3870136010        4.9458830738       -3.5482334640
 C        -5.3794159870        2.6825717943       -4.2059529265
 C        -6.1711083491        1.6100254339       -3.1946467544
 O        -6.5835039388        1.9612459095       -2.1045438025
 C        -6.1599679565        0.0210425153       -3.2725786174
 C        -7.6161529397       -0.6128613312       -3.2193400546
 C        -8.6955677962       -0.0633361848       -4.1254856154
 O        -8.5857940623        0.5149374083       -5.2031643005
 C       -10.1965354980       -0.3192827515       -3.3783864338
 C       -10.0497752109        0.3058318486       -1.8953328862
 O        -9.7091039328        1.4686050855       -1.8046613254
 C       -10.1012899661       -0.6722244623       -0.6349229363
 C       -10.1637345542        0.1794189566        0.7109369669
 C        -8.7720576446        0.7492468304        1.3177026073
 O        -8.5069154141        1.9439714205        1.1440057971
 C        -7.8807472651       -0.2281202823        2.1873137579
 C        -7.3018387131       -1.2956927736        1.2398612827
 O        -7.1113367599       -0.9856964492        0.0771929928
 C        -7.0275657669       -2.7218322981        1.7045589281
 C        -6.7046882691        0.4049688289        2.8153029953
 C        -8.9636589950       -0.7583518703        3.3439154052
 C       -11.4006880330        0.3003396062       -4.1096030554
 C       -10.3016651270       -1.8563515804       -3.4043002417
 C        -5.0002274314        2.1807966173       -5.6841698001
 C        -4.0490188688        2.7613098364       -3.4981951965
 C        -8.9856923380        8.3108153660       -2.5912651080
 C        -6.7614508661        7.3678374305       -1.6706078023
 C       -11.5738309764        8.4206788108        4.3474664600
 C        -9.1972967380        7.5075055597        4.8749622475
 C       -16.2877475737        5.9330574589        5.8018709931
 C       -17.0967566396        4.5951813177        3.6149326492
 H       -15.4155174767        6.5675801847        1.3869326193
 H       -15.2170512342        4.8632495386        2.0995087759
 H       -13.8142613422        5.9506568873        1.7885827774
 H       -13.0081481978        4.5991707253        6.2476730601
 H       -13.6300919937        6.0053133827        5.6032458676
 H       -12.7496208956        5.5954406575        3.4710869362
 H       -11.9299269628        4.0922470198        4.2279397541
 H        -8.7547902124        5.8382835654        1.8259708300
 H        -8.3793300936        7.4708145549        2.4954659769
 H        -8.9206624193        8.6382011800        0.4717546926
 H       -10.3185175198        7.8691241439        0.2498650744
 H        -7.0148546710        6.5843849766       -4.5601314774
 H        -8.6386295576        6.2978783777       -5.0613645394
 H        -7.2674911148        4.7270881077       -5.8648567765
 H        -8.0212926846        3.7703143312       -4.6242112953
 H        -5.5528639542       -0.1835401223       -2.3804423680
 H        -5.6023811075       -0.4129410222       -4.1739660053
 H        -7.8542810455       -0.7075978411       -2.1276456915
 H        -7.4234968408       -1.6066961093       -3.6360339910
 H        -9.2188837852       -1.3292238593       -0.6859937026
 H       -11.0952663988       -1.1922444158       -0.6065769352
 H       -10.6428077750       -0.5423268462        1.2598534780
 H       -10.9086839619        1.0196425588        0.5223956757
 H        -7.2895908442       -3.0806482700        2.6998096153
 H        -5.9127132158       -2.8444953182        1.6691324571
 H        -7.2408931095       -3.4417646248        0.9275439617
 H        -6.0802679193       -0.3489052165        3.3520642942
 H        -6.9349872972        1.1787488074        3.5301079777
 H        -6.3401546208        0.9725376492        2.0411993858
 H        -8.4789823571       -1.1583113319        4.2053962166
 H        -9.5590665288       -1.5385173805        2.9597412708
 H        -9.6168503368       -0.0295201468        3.7047869532
 H       -12.3275585093        0.0710664939       -3.5685437832
 H       -11.4221298610       -0.2678531807       -4.9868371403
 H       -11.4516619398        1.3903594062       -4.4220862167
 H       -10.8875385325       -2.1039453702       -4.2534160376
 H       -10.7534872956       -2.3863374161       -2.5808030964
 H        -9.4009898480       -2.4599702459       -3.5206016934
 H        -4.9310515339        3.0448162625       -6.3624556378
 H        -5.7856967581        1.6939918561       -6.3373669096
 H        -3.9932830946        1.7168635772       -5.8164932363
 H        -4.1745254075        3.1677859207       -2.4986868596
 H        -3.3837337799        3.3286676753       -4.1465513775
 H        -3.5910020641        1.7320133351       -3.5057471389
 H        -8.7238782834        9.2597384856       -2.2747390156
 H       -10.0605837660        8.1574575215       -2.6099162109
 H        -8.6658475080        8.4541763411       -3.5381716929
 H        -6.6249969803        7.4995837051       -0.5748474658
 H        -6.3808269207        8.3744533338       -2.0605369583
 H        -5.9874656190        6.6351161574       -2.1109597669
 H       -11.3635923523        9.2162901885        3.5297942457
 H       -11.7413736053        8.9216491356        5.3255183615
 H       -12.4738108215        8.0056564811        3.9364607998
 H        -8.5662238990        8.2871920338        4.3982544917
 H        -8.7573892093        6.5152691516        4.8136638281
 H        -9.3877176597        7.7285067974        5.9697295468
 H       -17.1401591899        5.4513709523        6.2326037208
 H       -16.5068814086        6.9918942659        5.6341378350
 H       -15.4632849776        5.8479154958        6.4615507396
 H       -17.7132247809        4.1356124358        4.3737508148
 H       -16.6156901749        4.1876436425        2.7169362185
 H       -17.5948032188        5.4661090095        3.1351407149
 Na       -8.8666281722        3.3245927341       -1.0441891219
