117

 C       -14.8936397859        6.0829349149        2.2225466300
 C       -15.2927584059        6.6181898754        3.5515472505
 O       -15.2047119270        7.8298648360        3.7608458459
 C       -15.9099483990        5.5382887732        4.6854763522
 C       -14.7610457037        4.6735584290        4.8834372907
 O       -14.8711760299        3.5661878807        4.3171420407
 C       -13.5179171312        5.2542499348        5.5028476509
 C       -12.3614836703        5.3714266781        4.4117120936
 C       -11.1257919482        6.1767492508        4.9138865978
 O       -10.8444408488        6.1885795715        6.1013946617
 C       -10.3984977333        7.2763252555        3.9671933162
 C       -10.3549336518        6.8993471737        2.4641028818
 O       -11.0969924777        6.1636079641        1.7760262766
 C        -9.0357031230        7.5716658299        1.8203186161
 C        -8.9941177373        7.6190511255        0.2990552930
 C        -8.6317697174        6.4858277583       -0.6085913034
 O        -8.7950820030        5.3156966343       -0.2533455280
 C        -8.1439099415        6.8581630857       -2.0405747391
 C        -8.4307707958        5.6943640563       -3.0733115993
 O        -9.4087949742        4.9618598780       -2.8286868809
 C        -7.7464144094        5.6423018638       -4.4635810902
 C        -7.2223040020        4.2177245478       -4.6998509879
 C        -5.9530761180        4.0819589901       -3.9807104401
 O        -5.5234380896        4.8518849346       -3.1604976179
 C        -5.3220226970        2.5321260615       -4.0587702337
 C        -6.2594012275        1.7086099390       -3.1528828900
 O        -6.9486629307        2.1822045032       -2.2058532415
 C        -6.3868418251        0.1709695106       -3.6745115579
 C        -7.5438270840       -0.6592044827       -3.0157523069
 C        -8.8064742102       -0.3872865063       -3.8666564053
 O        -8.5963171213       -0.1317306736       -5.0605305092
 C       -10.2572821458       -0.4842601213       -3.2642400222
 C       -10.1178322927        0.0684503049       -1.8379437778
 O        -9.9491231719        1.2275119177       -1.6760220269
 C        -9.9375842542       -0.8196869928       -0.5737685390
 C       -10.1765786920        0.1645661224        0.6967701565
 C        -8.7823400927        0.5742632780        1.2620368296
 O        -8.2422366545        1.6105111624        0.8137039758
 C        -7.9398179194       -0.2903472796        2.3214316536
 C        -7.1899383969       -1.3051533899        1.3619406647
 O        -6.7206150297       -0.9991421134        0.2654554244
 C        -6.9303063153       -2.8089004406        1.8177478586
 C        -6.9259485657        0.7757457875        2.9035601396
 C        -8.7760038038       -0.8986286854        3.3485004807
 C       -11.2987722121        0.2934092328       -4.1444836321
 C       -10.6741514416       -1.9474580182       -3.2160643531
 C        -5.3156915828        2.1991297154       -5.6621126454
 C        -3.8242730510        2.6537840840       -3.5560927819
 C        -8.9462875935        8.0883175948       -2.6305598599
 C        -6.6489255658        7.1552188883       -1.7879194602
 C       -11.3706982618        8.4722044830        4.1362096362
 C        -9.0482201932        7.6403087410        4.6126915926
 C       -16.4247001414        6.2676671157        5.9931851160
 C       -17.1386350027        4.6808348065        4.0854446075
 H       -15.8689168505        5.7523378175        1.7920076575
 H       -14.2632191244        5.2225125069        2.3336073354
 H       -14.3604520077        6.8120806986        1.6328646032
 H       -13.1434494995        4.6378691865        6.3270927172
 H       -13.6171916240        6.2350801068        5.8967529827
 H       -12.9107934902        5.8665301967        3.5322921414
 H       -12.2808859366        4.3655463630        4.3065893356
 H        -8.2630918468        7.0637878098        2.2910350806
 H        -8.8896010632        8.6810603926        2.1003094730
 H        -8.3140182829        8.5262226180       -0.0877730905
 H        -9.9024289559        8.1715714940        0.0791032568
 H        -6.8811059085        6.3332821110       -4.4381791934
 H        -8.4529403327        5.9135650966       -5.2566119413
 H        -7.0133450953        3.8308185183       -5.7711089177
 H        -8.0845289842        3.6545073335       -4.2392902870
 H        -5.4005021671       -0.3856750263       -3.6150029296
 H        -6.7206236708        0.2706143911       -4.7363714546
 H        -7.4957059445       -0.5405774839       -1.8778828930
 H        -7.2129404453       -1.6294587923       -3.2950288139
 H        -8.9274625691       -1.1189033990       -0.5287321156
 H       -10.8036455118       -1.5279069525       -0.5176897934
 H       -10.8588142766       -0.3469434620        1.3027563094
 H       -10.7378661771        1.1203509129        0.3328789614
 H        -6.1137302740       -2.8345956410        2.5503941879
 H        -6.5211121244       -3.3016809043        0.9549263418
 H        -7.6466200809       -3.5349049417        2.2399567994
 H        -6.3503489668        0.2415495061        3.7836766717
 H        -7.6173741333        1.4752919136        3.4101878017
 H        -6.3017061857        1.3539342544        2.2325923305
 H        -8.8917073480       -0.1862668573        4.2464064629
 H        -8.4292240144       -1.8128087704        3.8130561917
 H        -9.8470348485       -1.0503601593        3.0037065660
 H       -12.2566889709       -0.2663231491       -4.1853130695
 H       -10.9914509711        0.6383151023       -5.1222621434
 H       -11.6855203122        1.2229204676       -3.6111658231
 H       -11.0645009761       -2.2806174415       -4.2077827144
 H       -11.4469973979       -2.2186638066       -2.4954807612
 H        -9.9004249343       -2.6552761548       -2.9374526511
 H        -5.1871273123        3.0286859926       -6.2184828406
 H        -6.3397189423        1.8998663065       -5.8979359503
 H        -4.7699463531        1.4222333427       -6.0940773892
 H        -3.6960707661        3.4968614072       -2.8608028685
 H        -3.1985122593        2.7523283387       -4.4227464123
 H        -3.5496667607        1.6484652428       -3.1270378005
 H        -8.9128731249        9.0508691142       -2.0614092605
 H       -10.0862350459        7.7916539074       -2.7203888839
 H        -8.6492334577        8.4978780888       -3.6167328671
 H        -6.4385049229        6.8202524345       -0.8354189283
 H        -6.2236944023        8.1054398484       -1.8826445847
 H        -6.1197254445        6.5757262254       -2.5411902833
 H       -11.2891070906        9.1036635994        3.2739153193
 H       -11.2407485552        9.1089371732        5.0256692282
 H       -12.2928542723        8.1024972004        3.9828151897
 H        -9.0111200621        8.6785519598        4.3682509012
 H        -8.2344795049        7.0148233538        4.3777679849
 H        -9.2763360120        7.6202318235        5.7406618907
 H       -17.1323243543        7.0751914088        5.8121810782
 H       -15.4819523682        6.8528177303        6.3038477675
 H       -16.5374301965        5.4994726880        6.7926339765
 H       -16.7641813311        3.6805259249        4.0173621521
 H       -17.2578616003        5.2606194680        3.1651175849
 H       -17.8844588957        4.7423437897        4.8294546588
 Na       -8.5409889996        3.0076964372       -0.9574907905
