117

 C       -15.2235579947        6.1173176869        2.1497989700
 C       -15.6038278632        6.7330451606        3.5512696224
 O       -15.4232417430        7.9132368869        3.8786875529
 C       -15.9500749742        5.7545415008        4.6111430717
 C       -14.6450419858        4.7456449134        4.8400333356
 O       -14.6716388745        3.5830506046        4.4386838478
 C       -13.3918356771        5.2071251077        5.4605747917
 C       -12.2948820795        5.5237245276        4.4227326962
 C       -11.1671254185        6.2932989708        4.9819867892
 O       -10.8512873887        6.2438179603        6.1628204704
 C       -10.4198969968        7.2866415411        3.9413617892
 C       -10.1268409595        6.9107644540        2.4548040947
 O       -10.8556350288        6.0902946215        1.8869914761
 C        -9.0680755478        7.6887116579        1.7038812787
 C        -8.9682869485        7.7378823048        0.2278997671
 C        -8.7645897360        6.4031538127       -0.6020658638
 O        -8.5830846597        5.2712436550       -0.1781374853
 C        -8.3327153914        6.7134651933       -2.0903829173
 C        -8.5824174268        5.6617784081       -3.1150693810
 O        -9.3898208370        4.7666312829       -2.8785990800
 C        -7.8514837566        5.6978479603       -4.4215856439
 C        -7.1951567264        4.3126707095       -4.5830043009
 C        -5.9168818353        4.0144217374       -3.8063789840
 O        -5.3186994962        4.7280715539       -3.0398991259
 C        -5.3975912170        2.5884829565       -4.1695138016
 C        -6.4010317671        1.6142436625       -3.4045490418
 O        -6.9021607018        2.0536612008       -2.4146452529
 C        -6.3686608147        0.0671370665       -3.5818334529
 C        -7.6262139612       -0.5851588847       -2.8819192199
 C        -8.7946766446       -0.4945260755       -3.8558223189
 O        -8.6560011171       -0.3399980940       -5.0316314752
 C       -10.2699890310       -0.5196432694       -3.1794342832
 C       -10.1458682476        0.1753340700       -1.7787555181
 O       -10.0105247488        1.3803583818       -1.6637109191
 C       -10.0558495036       -0.8206803471       -0.4625294160
 C       -10.1217288348        0.0760300150        0.8093415969
 C        -8.6520260081        0.5071297022        1.2049141530
 O        -8.1940586822        1.5107346060        0.7627424584
 C        -7.9523690519       -0.2781632528        2.3370015916
 C        -7.0470531802       -1.3532714090        1.3957517623
 O        -6.6736283711       -0.9855111534        0.3289826085
 C        -6.8669576990       -2.7905230995        1.9153342702
 C        -6.9704845658        0.7786555528        2.9077666035
 C        -8.8560969762       -0.9172354165        3.3621959362
 C       -11.2656390919        0.1616690904       -4.1535577031
 C       -10.6802336254       -2.0026238790       -3.2097359116
 C        -5.2014221480        2.4291467868       -5.6726506857
 C        -3.9914283526        2.4582631947       -3.5851783811
 C        -8.9098324843        7.9623457888       -2.7717856173
 C        -6.7272268404        7.0344115969       -1.9072221662
 C       -11.4831469006        8.4695633193        3.9680026907
 C        -8.9805442176        7.6260701331        4.5773001057
 C       -16.3225903665        6.5739810610        5.9051140942
 C       -17.2583086322        4.8780389663        4.1050130965
 H       -15.8587194985        5.5667871619        1.5518745424
 H       -14.3393665129        5.5542242324        2.3331074294
 H       -14.7173913015        7.0165138623        1.7194020108
 H       -13.0586850898        4.6284024523        6.1738293697
 H       -13.5694305547        6.2092746147        5.8329207436
 H       -12.8584035376        6.0010811241        3.6234072782
 H       -12.0152806772        4.5025353239        4.1689486642
 H        -8.1097752319        7.1922475710        2.1631505413
 H        -9.0085262444        8.6837350388        2.0764406769
 H        -8.1067159895        8.2834448488        0.0101425340
 H        -9.7366053417        8.5748269276       -0.1195299828
 H        -7.0822089731        6.4072513833       -4.5022527157
 H        -8.6040464339        5.7820299094       -5.2301244598
 H        -6.8033902640        4.1907310532       -5.6083899364
 H        -8.0566250020        3.6392437123       -4.4132710958
 H        -5.4098299097       -0.2282009185       -3.1400891571
 H        -6.4667432311       -0.2689601786       -4.6846820736
 H        -7.8832298839       -0.0436791388       -1.9347127705
 H        -7.2909087178       -1.6424899483       -2.6845461701
 H        -9.1037950236       -1.3495012540       -0.3831399162
 H       -11.0461619648       -1.2677872437       -0.5497438724
 H       -10.5974703233       -0.5463620388        1.5857355925
 H       -10.8252263675        0.9188067813        0.6273871787
 H        -5.8724442569       -3.0133657363        2.2551226500
 H        -7.0169584440       -3.4204721337        0.9992809910
 H        -7.4588457670       -3.1879345802        2.7081947240
 H        -6.3693821787        0.2468364495        3.6473294120
 H        -7.6124456367        1.5460183161        3.4372805361
 H        -6.3020369298        1.2664118337        2.1682034097
 H        -9.4067446031       -0.2151343011        3.9510142839
 H        -8.1232944312       -1.2727192971        4.1107449937
 H        -9.5190137428       -1.7051803562        3.0886198878
 H       -12.2850877755       -0.2759291809       -4.2079373850
 H       -10.7999239101        0.2714827333       -5.1409060435
 H       -11.4991964145        1.2366726419       -3.8399554767
 H       -10.5008200926       -2.5323121307       -4.0979580403
 H       -11.7527651362       -2.1708586141       -2.9740441542
 H       -10.2000499545       -2.5724605188       -2.3702543741
 H        -4.9274698613        3.4009048930       -6.1184292074
 H        -6.0077467216        1.9992851642       -6.2350223191
 H        -4.4761719916        1.6811106266       -5.9190887911
 H        -3.8759366075        3.0003163223       -2.6166230713
 H        -3.1624991863        2.7815157218       -4.3243130775
 H        -3.9224834325        1.3275552163       -3.5025120166
 H        -8.5025143387        8.9866878657       -2.5286492152
 H       -10.0115362496        8.0395723909       -2.6996469817
 H        -8.7556662135        7.9069026314       -3.8535686484
 H        -6.4790992260        6.4367140772       -1.0650219468
 H        -6.4826849911        8.0905675709       -1.5392920072
 H        -6.1274181870        6.9040704474       -2.7956002745
 H       -10.9600394411        9.3147564472        3.4825235328
 H       -11.7043189425        8.8152445638        4.9185652572
 H       -12.3637309688        8.3028953194        3.3273413130
 H        -8.7918265349        8.6166218007        4.0967574290
 H        -8.2611208763        6.7741447470        4.3939068072
 H        -9.0721345580        7.7941400170        5.6297867167
 H       -16.6341559794        7.6089517108        5.6907061730
 H       -15.4436513094        6.7444593841        6.5429899761
 H       -16.9325437879        5.8995895004        6.5209321786
 H       -16.6500770024        4.0204741079        3.7525143218
 H       -17.7202659788        5.4776687744        3.2760390980
 H       -17.6976869740        4.5988905702        5.0641876305
 Na       -8.5047710806        3.0689797224       -1.0183669072
