117

 C       -17.4413405881        7.0374260784        2.5362608385
 C       -16.5344936469        7.4469906104        3.6909649995
 O       -15.7891830309        8.4316506719        3.6193647233
 C       -16.3866151995        6.6683781357        4.8773805216
 C       -14.7993126039        6.2469718271        4.5177458655
 O       -14.7008189312        5.1447803515        3.9287917105
 C       -13.5764919647        6.8834347465        5.0975410713
 C       -12.5272367233        6.9916186502        4.0025762612
 C       -11.1535980548        6.8329939434        4.5182902513
 O       -10.9366974189        6.4098472416        5.6136122141
 C        -9.8782328318        7.5771189634        3.6680345621
 C        -9.1146728503        6.5186475834        2.6770222452
 O        -8.8347804873        5.3994345180        3.0384000552
 C        -8.3841512310        7.0510574301        1.4120965562
 C        -9.2879248876        7.2049511836        0.1121816550
 C        -8.9104481567        6.1399683662       -0.9459259020
 O        -8.7391123632        5.0184294597       -0.5565712166
 C        -8.6019329872        6.5651116939       -2.3483901932
 C        -8.1827503562        5.2792696235       -3.2701398606
 O        -8.5710241502        4.1767341992       -2.9717584799
 C        -7.3697287163        5.4196251434       -4.6330794675
 C        -6.6711118513        4.0859264225       -5.1850990044
 C        -5.6326257823        3.5400713958       -4.2076534911
 O        -4.8797845009        4.2845714277       -3.6008477125
 C        -5.4161001839        1.8613322038       -4.0484290099
 C        -6.6252356724        1.0497007683       -3.4286169255
 O        -7.6363420780        1.5012167311       -2.9595593867
 C        -6.4587104170       -0.4862392733       -3.3771230966
 C        -7.6786285992       -1.0706100397       -2.4318027310
 C        -8.9475673068       -1.0753149664       -3.3978933663
 O        -8.8626174414       -1.2194608245       -4.6114363309
 C       -10.4040264501       -0.8894201833       -2.6112844693
 C       -10.3346728509        0.1644829562       -1.5290289233
 O       -10.6227320804        1.2869841336       -1.8131361999
 C       -10.1520109599       -0.3613192857       -0.0583161682
 C        -9.6892472480        0.8576855832        0.8027180768
 C        -8.1768101584        0.8539749889        1.1447547488
 O        -7.3998982597        1.5828946903        0.5890602181
 C        -7.6747387614       -0.1540260218        2.3034755101
 C        -7.0253925835       -1.4956519399        1.6175798193
 O        -7.5948721991       -2.1280086665        0.7793787324
 C        -5.6882563782       -1.8382382713        2.2286422097
 C        -6.7110198301        0.7580754767        3.1509823013
 C        -8.8175069768       -0.5913693831        3.2166858455
 C       -11.5192416504       -0.6100267182       -3.6970429379
 C       -10.7302723172       -2.3415161372       -2.0028384890
 C        -5.1261591879        0.9811820627       -5.3868954414
 C        -4.1258871739        1.8064414216       -3.1367152104
 C        -9.9039952470        6.9729031513       -3.0911871097
 C        -7.6566303938        7.8469729620       -2.5572556183
 C       -10.4921521224        8.8526214387        2.7872001322
 C        -8.8924437033        8.3078467217        4.6054127047
 C       -16.6324364956        7.5874256146        6.0471180520
 C       -17.2439124862        5.4081742897        4.9783701306
 H       -18.3174862682        6.7034537561        3.0084580949
 H       -17.2779368168        6.1894321477        1.9534295636
 H       -17.6762863804        7.9216633965        1.8835523447
 H       -13.3284639434        6.2509702774        6.0534873418
 H       -13.7567794936        7.9200303782        5.4917574680
 H       -12.8540263806        7.8214739019        3.2331338564
 H       -12.7477180862        6.1798700656        3.3721010513
 H        -7.5639421607        6.3752924514        1.2552833432
 H        -7.9513511477        7.9894434702        1.8737708225
 H        -9.1660875077        8.2517130897       -0.2417966620
 H       -10.2697264533        6.9505586061        0.3586061766
 H        -6.6145782334        6.2270087368       -4.4863591989
 H        -8.1001743718        5.7260183700       -5.3854200359
 H        -6.2440704267        4.0524349629       -6.1880391941
 H        -7.4670838993        3.3395420583       -5.2942708061
 H        -5.5220997746       -0.6777938649       -2.8196384858
 H        -6.6670097841       -1.0076157413       -4.2746546076
 H        -7.8091853137       -0.5605880887       -1.3964272229
 H        -7.5565476900       -2.1502478699       -2.1980575221
 H        -9.6205358171       -1.2939656552        0.2296999779
 H       -11.2180215916       -0.6001265550        0.3015422517
 H       -10.2724195888        0.9667302186        1.6510729706
 H        -9.8145086339        1.8378048411        0.2637420576
 H        -5.5951315808       -1.4735532363        3.2606946515
 H        -4.7825041532       -1.4394632960        1.7284417343
 H        -5.5648316768       -2.8832887468        2.3600150257
 H        -6.1198567800        0.2141679789        3.9737127758
 H        -7.2803188712        1.5139673159        3.7540543271
 H        -6.0540706104        1.3127963423        2.4897659411
 H        -9.6012241143        0.1420177894        3.4103732181
 H        -8.3083696211       -1.0253288948        4.0607390493
 H        -9.2357151319       -1.4843350321        2.7508768239
 H       -12.4065068643       -1.2991400779       -3.7069662447
 H       -11.1624284625       -0.6828377500       -4.7014724525
 H       -12.0597575691        0.4063351675       -3.5878142129
 H       -10.9797092947       -3.0669151371       -2.7866157873
 H       -11.5800004229       -2.0828948059       -1.3624888301
 H        -9.9088896226       -2.7254839538       -1.3610135794
 H        -4.0707498978        1.2685998734       -5.5729530721
 H        -5.6422285185        1.2724774640       -6.3077408721
 H        -5.1565729853       -0.1174250334       -5.1580570253
 H        -3.2524449225        1.9413252250       -3.7918027676
 H        -3.9786014032        0.8320861055       -2.5726341868
 H        -4.1912339276        2.7133452952       -2.4273417449
 H       -10.1668300699        8.0142344358       -2.9427757071
 H       -10.7877267185        6.2805092834       -3.0483326319
 H        -9.6504060271        7.0174888619       -4.1259442557
 H        -8.1140948888        8.7680437680       -2.7344588787
 H        -6.8288163174        7.3350954711       -3.1212864269
 H        -7.1411832336        7.9645343030       -1.5817351262
 H        -9.8896377964        9.7369111149        2.5408598708
 H       -11.3771190646        9.2585366810        3.1975115253
 H       -10.7605193152        8.4644510467        1.8385689195
 H        -8.0744391518        8.8085242503        4.0349424499
 H        -8.3862928010        7.5631192975        5.3132929870
 H        -9.5363847162        9.0116753061        5.1500781170
 H       -17.5828461385        8.0931402128        5.9977683023
 H       -15.7964102101        8.2997202969        6.2438669247
 H       -16.8441747265        7.1133220666        6.9958807306
 H       -17.1086663718        4.9213529774        4.0284914055
 H       -18.1372325837        5.9475071494        5.4088088687
 H       -16.7551996557        4.8052312237        5.7354482020
 Na       -8.4684871579        2.5118753921       -1.0032139841
