117

 C       -17.7425281981        7.2918034896        2.5658731202
 C       -16.6105451833        7.6760343962        3.5750944018
 O       -15.9931257901        8.6675483419        3.3922288728
 C       -16.3449102546        6.7091880213        4.9188555379
 C       -14.8980968030        6.1581190185        4.7191186522
 O       -14.7794379505        5.2434636507        3.9258773207
 C       -13.6537876222        7.0244315076        5.0310338923
 C       -12.5010060166        6.9964419716        3.9178598825
 C       -11.1086236706        7.0364101702        4.5121926131
 O       -10.8369438142        6.4811237674        5.5304424435
 C        -9.8864874512        7.6240109504        3.5173673186
 C        -9.0103956491        6.5505693249        2.7635631014
 O        -8.9418786540        5.4173175399        3.0988874262
 C        -8.2323446820        7.0041456562        1.3550845701
 C        -9.1900510339        7.1358892503        0.0952257337
 C        -8.8367337911        6.0655335826       -0.9697063889
 O        -8.8299650687        4.9123937762       -0.5995830955
 C        -8.5476303693        6.5713874011       -2.6040267186
 C        -8.0550738968        5.2282561927       -3.3397614354
 O        -8.6591868717        4.1834089239       -3.0372860578
 C        -7.1121539571        5.2533684966       -4.5391644398
 C        -6.8001538639        3.8844276699       -5.0023237716
 C        -5.7383862009        3.2540241921       -4.1660549488
 O        -5.0148447028        4.0430819416       -3.5438963566
 C        -5.3604232462        1.7989917113       -4.0771483423
 C        -6.6651994377        1.0153020889       -3.3534929630
 O        -7.5928770517        1.7096306085       -3.0005094402
 C        -6.5261930568       -0.4702959562       -3.3204063911
 C        -7.7051273463       -1.1003738086       -2.4749889783
 C        -8.9398616509       -1.1318360765       -3.3750491803
 O        -8.7118292259       -1.2716202016       -4.5648193337
 C       -10.4488674796       -0.9819419746       -2.6816384931
 C       -10.3801480102        0.1368525761       -1.5302530184
 O       -10.5277477790        1.3488823833       -1.7120207144
 C       -10.0728986217       -0.2118583580       -0.0777332120
 C        -9.6772983874        0.9070673488        0.8465559023
 C        -8.2241472204        0.8382026885        1.1643431674
 O        -7.3630237340        1.6247872209        0.7221642527
 C        -7.7205145610       -0.1194574102        2.2341184296
 C        -7.0019423163       -1.3837871609        1.7135901990
 O        -7.7711000025       -2.0834966791        1.0203427515
 C        -5.6415383350       -1.7933000436        2.0002481582
 C        -6.6971236391        0.7972329239        3.1321287253
 C        -8.7245315836       -0.6941008941        3.3503417978
 C       -11.6875933583       -0.7645707516       -3.5019226736
 C       -10.6310006310       -2.3598012447       -1.9115662190
 C        -4.9880687059        1.2266817862       -5.4036476913
 C        -4.1419401306        1.6268588396       -3.1865044104
 C       -10.0678367636        6.8621240504       -3.1849220941
 C        -7.7317327824        7.8052920343       -2.5662779588
 C       -10.3164924523        8.7597463690        2.6424462079
 C        -8.8422901299        8.2915034479        4.5442781953
 C       -16.4092490485        7.6531115481        6.1159488452
 C       -17.2021902136        5.2959761451        5.0730217406
 H       -18.6689806671        6.7487367863        2.8385132943
 H       -17.2189330722        6.4703364464        1.9981181305
 H       -18.0066636304        8.0608877317        1.8423968039
 H       -13.3687939137        6.5020547474        6.0311714966
 H       -13.7382838718        7.9688230140        5.3149849891
 H       -12.6785819311        7.7848490900        3.2050835320
 H       -12.7411858682        6.1081402106        3.2963309052
 H        -7.5413696693        6.1382366544        1.1035506060
 H        -7.7024271821        7.7974707022        1.6044194404
 H        -9.0662478011        8.0540616449       -0.2813578970
 H       -10.3294246341        6.8879165669        0.2736257844
 H        -6.1866625138        5.7223829104       -4.3281032334
 H        -7.6340873926        5.8418633078       -5.3400769100
 H        -6.2979539047        3.9574226957       -5.9305981237
 H        -7.5602549908        3.2155134497       -5.3044263137
 H        -5.6258833838       -0.7099530642       -2.8558159139
 H        -6.6852095765       -0.7359797849       -4.3880231393
 H        -7.8033244157       -0.4801409384       -1.5575327661
 H        -7.6276384185       -2.1108559969       -2.1215988457
 H        -9.3275585513       -1.0050682823        0.0705896589
 H       -10.9317111917       -0.7734804782        0.3657336810
 H       -10.2461425049        0.9405975151        1.8018133859
 H        -9.8121640662        1.8897051136        0.4518619322
 H        -5.2811136216       -1.4734505049        2.9787275844
 H        -4.9669927253       -1.2741422258        1.2709836724
 H        -5.4515725117       -2.8482320496        1.9894474187
 H        -6.3233323699        0.3547845438        3.9809143886
 H        -7.2311896023        1.7128400242        3.5337091463
 H        -5.8907147346        1.2696921932        2.4987766105
 H        -9.2684007810       -0.0403853118        3.9283695800
 H        -8.0897359588       -1.4121720441        3.8352289263
 H        -9.3333863626       -1.3377786920        2.8151893192
 H       -12.5925606260       -1.2559610364       -3.1429730279
 H       -11.7194126397       -0.9260786384       -4.6095304491
 H       -11.9814247518        0.2732983124       -3.3551247029
 H       -11.0501877723       -3.0441226174       -2.5697269030
 H       -11.2700040347       -2.1103654844       -1.0502431138
 H        -9.6450348880       -2.7186772396       -1.4737835939
 H        -4.2737106626        1.9551226540       -6.0102059473
 H        -5.9104784672        1.1608322842       -6.0539759672
 H        -4.5528692654        0.1776345245       -5.2403626253
 H        -3.3580723713        2.2840883128       -3.7003523360
 H        -3.6933758106        0.5491844943       -3.1426566961
 H        -4.3707355138        2.1051439607       -2.2001496907
 H       -10.3932929887        7.7884477507       -2.7588998884
 H       -10.6454114212        6.0825446552       -2.8766399059
 H       -10.2348774399        7.0489037673       -4.2222299549
 H        -8.4274623077        8.5997517762       -2.1411553347
 H        -7.1111741886        7.8914351014       -3.5051235669
 H        -6.9868619576        7.7316952759       -1.7289448023
 H        -9.4600400835        9.3502910345        2.2819503352
 H       -10.8406018432        9.4887108561        3.1952739895
 H       -10.8597719394        8.5219768292        1.6447428575
 H        -7.7401625169        8.4456186933        4.2505188844
 H        -8.8572152640        7.3950469570        5.2508467798
 H        -9.2956323394        9.1333071319        5.0019078902
 H       -17.2951900478        8.3183169124        6.0815845848
 H       -15.5543155128        8.3047143069        6.2683685257
 H       -16.6180343268        7.2047640151        7.0971232076
 H       -17.1155177114        4.8866074427        4.0916993391
 H       -18.0077709901        5.5730010852        5.6442186798
 H       -16.4884847778        4.6613708713        5.6100661469
 Na       -8.5331825911        2.5060068074       -1.0394177367
