117

 C       -17.9468925499        7.4158895527        2.6879768658
 C       -16.7856228108        7.7626892849        3.5340870383
 O       -16.1952369541        8.8034302166        3.3045505727
 C       -16.2666431315        6.8555397817        4.8838601383
 C       -14.8504077733        6.2387482418        4.4858808437
 O       -14.7277091350        5.2018189931        3.9253931699
 C       -13.5863566905        7.1595686084        4.9430453301
 C       -12.5029828634        7.0037205935        3.8178923577
 C       -10.9575606814        7.0858597233        4.2719716689
 O       -10.6633419205        6.6463565805        5.3990581543
 C        -9.8407389169        7.7020231136        3.4758272622
 C        -9.1076155695        6.5642405680        2.6704677072
 O        -9.0492391093        5.4533417984        3.1641979128
 C        -8.2604380770        6.8933368102        1.3934557972
 C        -9.0158163638        7.0256155812        0.0928127081
 C        -8.8294635659        5.9957020789       -1.0247172724
 O        -8.8603562938        4.8017383745       -0.7145560060
 C        -8.6931428343        6.4595690737       -2.4604420679
 C        -8.2109095039        5.2093525960       -3.3961836472
 O        -8.6741037754        4.1457386648       -3.1385866237
 C        -7.0326491473        5.2440957628       -4.4817258979
 C        -6.9130508985        3.7695872585       -4.9629255248
 C        -5.6444620022        3.1777037335       -4.0585493177
 O        -5.0760011585        3.9040170018       -3.3329123326
 C        -5.2930617373        1.7009695433       -4.0833392963
 C        -6.5735818006        0.9546420711       -3.4030031024
 O        -7.4002495513        1.7585990139       -3.0259884909
 C        -6.5604300645       -0.4756094584       -3.1357408471
 C        -7.7179970453       -1.0533074674       -2.4674252050
 C        -9.0486325698       -1.1035932943       -3.3349971628
 O        -9.0454176115       -1.2994336822       -4.5026144140
 C       -10.4255789881       -1.0051588803       -2.4761344055
 C       -10.2422273020        0.1491249289       -1.4805246878
 O       -10.4068098158        1.3146040841       -1.9182036622
 C       -10.0416027714       -0.2113284713       -0.0129579935
 C        -9.7245528602        0.8169050866        1.0071963461
 C        -8.2575421347        0.9797543134        1.4355948029
 O        -7.4761309584        1.5878484315        0.6644352798
 C        -7.6670418877       -0.0745629087        2.4311034464
 C        -7.0288043858       -1.3160443349        1.6815870697
 O        -7.8701086725       -2.0673089375        1.1932935816
 C        -5.5482352747       -1.7195713070        1.7340809163
 C        -6.5394711947        0.8216593833        3.2602602030
 C        -8.7125931156       -0.6981216159        3.4281012642
 C       -11.6381613736       -0.8177877883       -3.3721787293
 C       -10.4858956024       -2.5013849299       -1.8600185630
 C        -5.0164792498        1.3929392756       -5.6186415492
 C        -4.0898705915        1.3289984861       -3.0542567908
 C       -10.0902444035        6.6784555832       -3.1173928747
 C        -7.7332375585        7.6717473505       -2.6696095679
 C       -10.2575930123        8.7610430028        2.4821244375
 C        -8.7359104881        8.1884549396        4.5881028517
 C       -16.3122524077        7.6362088666        6.2307498014
 C       -17.2171139879        5.5705956639        5.1083510046
 H       -18.9199243549        6.8737300434        3.0897224174
 H       -17.5792594566        6.6170215752        1.9493193474
 H       -18.3598798619        8.2439578091        2.0935771216
 H       -13.3264977585        6.9005346713        5.8788011633
 H       -13.6796023721        8.3338796044        5.1004938256
 H       -12.7320826595        7.7307741875        3.1343822241
 H       -12.9193751601        6.0596186008        3.2994362884
 H        -7.5219884082        6.1214000606        1.2185698983
 H        -7.7716278768        7.8337306146        1.7697003297
 H        -8.7662022068        8.0600698377       -0.2902566717
 H       -10.1548570872        6.9222430804        0.1316015072
 H        -6.0910895917        5.4335732393       -3.9669600562
 H        -7.1843200291        6.0542138483       -5.2239540249
 H        -7.0204596064        3.6893270849       -6.0275046781
 H        -7.6866505130        3.0541149914       -4.7123321038
 H        -5.7426404798       -0.7662167823       -2.5131990806
 H        -6.5924749858       -0.8684153155       -4.1910167014
 H        -7.8273611150       -0.5300647166       -1.5876951850
 H        -7.5786515257       -2.0755510740       -2.1243161722
 H        -9.2994933074       -1.0408830203        0.0718937862
 H       -10.8597166098       -0.8458793407        0.2585431470
 H       -10.3594640414        0.8501706903        1.9776579871
 H        -9.9671542271        1.7550533187        0.5875577511
 H        -5.0421226889       -1.6675822857        2.6916809119
 H        -5.0176292009       -1.0974894005        1.0436159919
 H        -5.3910055938       -2.7983487734        1.4479215685
 H        -6.2123559026        0.5299973023        4.2387868577
 H        -6.8120146701        1.8334192780        3.3636175242
 H        -5.7190055015        0.9703003125        2.5501936484
 H        -9.1286053014        0.0374630349        4.1000723107
 H        -8.4646670353       -1.6524619229        3.7889382011
 H        -9.4648606406       -0.8836462941        2.7061582390
 H       -12.5844565000       -0.9745917716       -2.9162572433
 H       -11.6083001941       -1.4266969795       -4.3017647487
 H       -11.7222746280        0.1611470002       -3.7176538029
 H       -10.6334054905       -3.0126440712       -2.8274281597
 H       -11.2565534865       -2.6491189300       -1.1168867535
 H        -9.5425822477       -2.7646211001       -1.4181165675
 H        -4.9307897170        2.3534880208       -6.1849040167
 H        -5.9691816686        0.9175109393       -6.0977999095
 H        -4.1760831952        0.6892066311       -5.7768143314
 H        -3.5347641110        2.3095473127       -3.0714873777
 H        -3.4340438280        0.5831069053       -3.4763999791
 H        -4.4462100923        1.1587169859       -2.0425770014
 H       -10.5850034038        7.4354000204       -2.5899115395
 H       -10.6223025894        5.7423722299       -3.1345209255
 H        -9.9996285129        7.1393548724       -4.0845843487
 H        -8.1480958967        8.2958663776       -1.8177010698
 H        -7.8944743452        8.0023197769       -3.6443980943
 H        -6.6402864861        7.5626234932       -2.4965182348
 H        -9.5315650429        8.9275861803        1.6892708929
 H       -10.3439640540        9.8386620001        2.9025781154
 H       -11.1421523247        8.4796844284        1.8741290089
 H        -7.7045889603        8.1363200596        4.1900574550
 H        -8.7667333586        7.4810317957        5.3477166970
 H        -8.9633879915        9.2449050323        4.9380764351
 H       -17.2856457367        8.1607517277        6.4023571505
 H       -15.6293506954        8.4936971075        6.3390021227
 H       -16.2056639600        7.0527259075        7.1602850394
 H       -17.1275809295        5.1571927688        4.1584438992
 H       -18.0277537471        5.9609512061        5.6027930621
 H       -16.6406424689        4.9016138114        5.6901584900
 Na       -8.6194052327        2.6904874287       -1.2257557656
