117

 C       -18.1091714544        7.3603209261        2.9214917657
 C       -16.8935509472        7.8506601560        3.6683471957
 O       -16.2660746110        8.8896173760        3.3858527993
 C       -16.2731466223        6.9830000262        4.7668385720
 C       -14.7884963320        6.5163051816        4.3489092385
 O       -14.6601439715        5.3379943674        3.9715716695
 C       -13.4893608287        7.1540111855        4.6337479648
 C       -12.3645581023        7.0185717830        3.6478401936
 C       -10.9596732602        7.1929083098        4.3154476440
 O       -10.7411697193        6.6696399743        5.3705524024
 C        -9.7307987270        7.7596166465        3.3497914048
 C        -9.1071662203        6.4952217722        2.6862320475
 O        -9.1747653975        5.3882686691        3.1640111957
 C        -8.2150792785        6.7304855200        1.4068014518
 C        -8.9994543312        7.0459965609        0.0844166840
 C        -8.8082825380        5.9041964344       -1.0195017228
 O        -8.8775227251        4.7588220383       -0.5984642565
 C        -8.7408700338        6.3394244998       -2.5299073068
 C        -8.2186367870        5.0588153760       -3.3276584909
 O        -8.8918348186        4.0815620174       -3.2676357897
 C        -7.1098887157        5.2161936123       -4.3609603787
 C        -6.6414742515        3.7837333417       -4.7868729255
 C        -5.6090042062        3.2167297455       -3.8884639706
 O        -5.0292378163        3.9232721134       -3.0820588431
 C        -5.2745161260        1.7035122447       -4.1480875911
 C        -6.4557185505        0.9671061270       -3.5321719417
 O        -7.2832115713        1.6008159782       -2.9402609134
 C        -6.4861379550       -0.6343893318       -3.1958403586
 C        -7.7679269330       -1.0485453587       -2.4936656266
 C        -9.1495785564       -1.0718311072       -3.2607696315
 O        -9.3506554408       -1.2639315094       -4.4497597570
 C       -10.3921263978       -1.1023282222       -2.3655340279
 C       -10.2388699326        0.0801416315       -1.3885196814
 O       -10.1826901512        1.1546189267       -1.9399126882
 C       -10.0997027013       -0.2154596543        0.1055099378
 C        -9.8325259041        0.8887526911        1.1539158412
 C        -8.2407603792        0.8446332061        1.3837882295
 O        -7.6568552120        1.5678221067        0.6562682807
 C        -7.6132060059       -0.0019265424        2.5200456604
 C        -7.0910197084       -1.2931503505        1.7678058218
 O        -7.8785123014       -2.0274107461        1.2734949532
 C        -5.5730741370       -1.5093601425        1.4869386159
 C        -6.4334542212        0.7102619947        3.3764777786
 C        -8.6149504708       -0.5204212086        3.5499181933
 C       -11.5559591584       -0.8538946478       -3.3114466892
 C       -10.4101564167       -2.6008835827       -1.7478825288
 C        -5.0275242807        1.2783439983       -5.7027248703
 C        -4.0786625987        1.1943043656       -3.2289722944
 C       -10.1463584551        6.5925469061       -2.9954046353
 C        -7.7278741047        7.5960358079       -2.8788955859
 C       -10.2062243941        8.9607120538        2.4018617333
 C        -8.6782285141        8.2065533725        4.3340892906
 C       -16.1966804613        7.6238330277        6.1219156663
 C       -17.3098158523        5.8330239009        5.0178118967
 H       -18.9243551565        7.0349345317        3.5835611368
 H       -18.1643672109        6.6186015944        2.1021093285
 H       -18.6688624922        8.3017128478        2.5334588975
 H       -13.1307611172        6.9144480644        5.6330876986
 H       -13.7419377842        8.2794722623        4.7730531952
 H       -12.5695554970        7.5755701832        2.6676299587
 H       -12.4635630430        5.9651140489        3.3842325899
 H        -7.6831834827        5.8252430183        1.1885907679
 H        -7.4861685769        7.6101818299        1.7994770616
 H        -8.7043064979        8.1552211310       -0.2887984790
 H       -10.0465852410        7.0125949512        0.1364534982
 H        -6.2219680029        5.9014529374       -4.1379902739
 H        -7.7282761633        5.7257641234       -5.0937785868
 H        -6.3442044248        3.8749116577       -5.8798549697
 H        -7.3551367353        2.9091672706       -4.9477041077
 H        -5.7897231290       -0.8531856759       -2.3139205679
 H        -6.3809373778       -1.3254562200       -4.0076089054
 H        -7.8075090546       -0.3927017538       -1.6289788777
 H        -7.7105056418       -2.0159841506       -2.0014649132
 H        -9.4164068467       -1.0627200912        0.2718443640
 H       -10.9475430994       -0.8591126712        0.3682054438
 H       -10.2797777951        0.7573045399        2.1107176731
 H       -10.1563029312        1.9253130416        0.8505019527
 H        -4.9409649443       -1.7147712445        2.3586827346
 H        -5.1377982919       -0.7243417753        0.8917394110
 H        -5.4648212080       -2.4567896187        0.9599753406
 H        -6.2392015103        0.1472733158        4.3486094140
 H        -6.4891395827        1.7314251597        3.6081221682
 H        -5.5872082274        0.7363078359        2.7875884084
 H        -8.9927320383        0.3548894350        4.1659081185
 H        -8.3578078026       -1.4416406340        4.0636948124
 H        -9.4484546455       -0.7428185109        2.8361536077
 H       -12.4847901921       -0.5949657457       -2.8400563616
 H       -11.7173070384       -1.6541218362       -3.9324684698
 H       -11.3768397428       -0.0669705307       -4.0408231363
 H       -10.2172775574       -3.1881929206       -2.6789788612
 H       -11.3752791676       -2.7884152756       -1.3157419692
 H        -9.6668595059       -2.6795530342       -0.9908266122
 H        -5.1393961925        2.2207327915       -6.1775113391
 H        -5.7811191532        0.6128674347       -6.1605484835
 H        -4.0639924891        0.8318465481       -5.8771932545
 H        -3.6610369476        2.0432208511       -2.8180419327
 H        -3.3626541095        0.7100691605       -3.7983253266
 H        -4.4278564957        0.5911069614       -2.3999348063
 H       -10.5581273973        7.2566899583       -2.2271060520
 H       -10.8131053907        5.6820369155       -3.2290891224
 H       -10.1078133870        7.2917662494       -3.8171445968
 H        -7.7814215952        8.1522883517       -2.0290598629
 H        -8.1571127436        8.1578870726       -3.6970012671
 H        -6.6848361605        7.4142904033       -3.0717813980
 H        -9.7046218572        9.2373599087        1.4544203457
 H       -10.2662156110        9.9459759983        2.9406041118
 H       -11.1515504406        8.6796181367        2.0445443470
 H        -7.8298206249        8.3168293346        3.7523653546
 H        -8.4855298935        7.5669726964        5.1580948624
 H        -8.9041804824        9.2574617399        4.5642748547
 H       -17.0903549841        7.8904621196        6.6642461927
 H       -15.7680057334        8.6415231261        5.9715798925
 H       -15.5478620609        7.1413160838        6.8446682096
 H       -17.2026338459        5.2407661649        4.1713148565
 H       -18.1550904621        6.4846158611        5.2733211981
 H       -16.9906159481        5.3424777978        5.8700961358
 Na       -8.6890653287        2.7799721549       -1.4109685595
