117

 C       -18.3030353744        7.8777829337        3.3007253175
 C       -16.9034603505        8.1109349812        3.8379384430
 O       -16.3028144717        9.1774135949        3.5453445472
 C       -16.1498192667        7.1214410433        4.7559225854
 C       -14.6854217932        6.7148545788        3.9017476708
 O       -14.7437816909        5.5432270153        3.5467131416
 C       -13.5289828123        7.6885138517        3.8706977826
 C       -12.2605194842        7.0263915488        3.3979801629
 C       -10.9351876233        7.4343641185        4.1594550828
 O       -10.9057314354        7.3091781908        5.3663473503
 C        -9.7671436748        7.8254842905        3.3096514260
 C        -9.2292675916        6.4957616665        2.4563332559
 O        -9.6940895092        5.4296071327        2.8029548202
 C        -8.1422759094        6.6714300182        1.3893899940
 C        -8.5919500989        6.9268166186       -0.0409757135
 C        -8.7886799104        5.7607146060       -1.0193759616
 O        -8.6961613423        4.6245572632       -0.5698467885
 C        -8.8805251687        6.1392142924       -2.5210963685
 C        -8.4650210252        4.9553638780       -3.3954995506
 O        -9.1204519421        3.9972799222       -3.6246244611
 C        -6.9929601221        5.0551740678       -4.1424822041
 C        -6.3934756243        3.7757435977       -4.7160631404
 C        -5.4569975039        3.0318096985       -3.7516299743
 O        -5.0206425970        3.5457625763       -2.7540041444
 C        -5.1025353174        1.3754435558       -4.0743543614
 C        -6.2742580083        0.7061609334       -3.3480532380
 O        -6.9569489065        1.4311371997       -2.6968452179
 C        -6.6339030178       -0.7387805699       -3.7126989457
 C        -7.5868466613       -1.5071690311       -2.7235659052
 C        -9.1467610765       -1.2800717825       -3.0511520334
 O        -9.3728319653       -1.0528947937       -4.2048603706
 C       -10.3667377761       -1.4324389527       -1.9972626771
 C       -10.2403350192       -0.2263781056       -1.0589596325
 O        -9.9713185968        0.8970277211       -1.4545329642
 C       -10.4937616156       -0.3501949428        0.4603463351
 C        -9.9591462825        0.8363972862        1.2237638574
 C        -8.4231303520        0.9532577667        1.3225763302
 O        -7.7036743904        1.5585492868        0.5777308568
 C        -7.5592707795        0.0882812643        2.5772600389
 C        -7.1969120401       -1.1382816650        1.6865560662
 O        -8.0035438526       -2.0053340688        1.4861070548
 C        -5.8351128244       -0.9858566350        0.9203234507
 C        -6.5320468310        1.0496564403        2.9155175006
 C        -8.6368127408       -0.3074190760        3.5838908207
 C       -11.6060012037       -1.0565023328       -2.7600567432
 C       -10.4687166805       -2.8967583905       -1.4783774747
 C        -5.1825892172        1.0161710776       -5.6468014378
 C        -3.7306119726        1.1646393777       -3.4848750249
 C       -10.4944625498        6.5328095017       -2.7339844244
 C        -8.0888864125        7.5007131099       -2.8289222729
 C       -10.1846930546        8.8958111882        2.1923300622
 C        -8.6708897010        8.1560273002        4.2415175022
 C       -15.8537943453        8.0061964025        5.9638350338
 C       -16.8365455360        5.8713253855        5.3985035692
 H       -19.0899658318        8.6035088341        3.5468379364
 H       -18.5244677658        6.8619370922        3.5692806627
 H       -18.6017176877        7.8538659544        2.2151575203
 H       -13.4127461926        8.0056668446        4.8087216579
 H       -13.7888050368        8.6827146032        3.2705325166
 H       -12.1005377062        7.2658115529        2.3807301588
 H       -12.1391415649        5.9136518569        3.5531330623
 H        -7.5509564126        5.8549599020        1.5022927790
 H        -7.5640505574        7.6498444949        1.6904831588
 H        -7.9895569818        7.8713157503       -0.5061740627
 H        -9.5441581439        7.4292311645        0.1186697985
 H        -6.4899488078        5.5429021662       -3.3116964620
 H        -7.1353750784        5.7740209358       -4.9650959222
 H        -5.8016735699        3.9749915932       -5.5432812894
 H        -7.1293179696        3.2169443068       -5.1913248336
 H        -5.7959128174       -1.3989405327       -3.7537941984
 H        -7.2517726016       -0.7873705433       -4.6452973728
 H        -7.4373416785       -1.2302542692       -1.7135251187
 H        -7.3240934927       -2.5856180998       -2.6658630040
 H       -10.0524786041       -1.3416659147        0.7260290642
 H       -11.4308698750       -0.5684300364        0.8948691171
 H       -10.3842291011        1.0015553781        2.2574606215
 H       -10.2807607178        1.6797694043        0.6579105088
 H        -4.8808898430       -1.2395349645        1.3971800917
 H        -5.8362897788       -0.0106425687        0.4938571504
 H        -5.8385765199       -1.6531320659        0.0201072059
 H        -5.4323697676        0.7171778653        2.8857812496
 H        -6.6152709080        1.4018056224        3.9156409773
 H        -6.6260371790        1.9870983893        2.3977096351
 H        -9.1573970341        0.5980811485        3.8614773154
 H        -8.0961515530       -0.4608475006        4.4392348347
 H        -9.2451941865       -1.1442658419        3.3681012727
 H       -12.4448150722       -1.0056443098       -2.0183368280
 H       -11.8812402594       -1.7337707226       -3.5667063216
 H       -11.6040097463       -0.1337432098       -3.3551259423
 H       -11.0467281290       -3.3658592876       -2.3309819606
 H       -11.0711787167       -2.9041470083       -0.5873067956
 H        -9.4762786952       -3.2166067351       -1.2915313565
 H        -6.0134560554        1.5444960777       -6.1537181281
 H        -5.1603478948       -0.1736209661       -5.6092585086
 H        -4.1339379064        1.1431483110       -6.0255069000
 H        -3.2383751403        2.1018996895       -3.0091548026
 H        -3.0975057581        0.9536880809       -4.3724262420
 H        -3.6556827043        0.2630146035       -2.7440595908
 H       -10.7383116203        7.5129032261       -2.4871108517
 H       -11.1285093203        5.8188046072       -2.1754089584
 H       -10.6445764755        6.3357148557       -3.7640458973
 H        -8.5693465440        8.5014379259       -2.9787272375
 H        -7.5678572569        7.3731989602       -3.8015652330
 H        -7.2100899714        7.4976973677       -2.0517288815
 H        -9.2709560532        9.4153810813        1.8660473041
 H       -10.9496875056        9.7163342992        2.4977266636
 H       -10.5903995430        8.4437042775        1.3088648976
 H        -8.0307534985        8.8960040065        3.7230350012
 H        -8.1826996604        7.2977824541        4.6556436546
 H        -9.0486154769        8.8581953403        5.1066444879
 H       -16.7396256894        8.5152572645        6.3710634565
 H       -15.3340708757        8.9386212384        5.8079875090
 H       -15.3449991897        7.4258590323        6.7298519656
 H       -17.1079825506        5.2345851921        4.5916010072
 H       -17.5442106002        6.2870697641        6.1319910248
 H       -15.9557467337        5.5490590415        5.8921145126
 Na       -8.4500228304        2.5990706470       -1.3601683232
