117

 C       -18.2676468682        7.8830165476        3.5359838722
 C       -16.8260227075        8.2385780788        3.8994772854
 O       -16.3004200419        9.2443915199        3.4623160872
 C       -16.0222119496        7.1742208372        4.8346813992
 C       -14.7517245798        6.8114750808        3.9683577094
 O       -14.6288259244        5.8117909163        3.2679960246
 C       -13.5399325159        7.7935810316        3.6667956799
 C       -12.3513022533        6.9424213429        3.2950473255
 C       -11.1376452611        7.3429166324        4.1523369416
 O       -11.0550896710        7.6926617807        5.2872637545
 C        -9.7729949220        7.7872821378        3.2725747170
 C        -9.3448725735        6.4854232251        2.3751094546
 O        -9.8677394637        5.4253651907        2.5246644414
 C        -8.1394184134        6.6851966288        1.4616994491
 C        -8.5113653839        6.9371359200       -0.0082412025
 C        -8.5681191782        5.7436906462       -0.9669412533
 O        -8.6407162363        4.5720177575       -0.6429216537
 C        -8.8372876732        6.0833686355       -2.5687323671
 C        -8.3149362542        4.9706522766       -3.4489999825
 O        -9.0390401633        3.9730840552       -3.6169462829
 C        -6.8888914271        5.0004460910       -3.8888515013
 C        -6.6220774923        3.6926446029       -4.5313631827
 C        -5.5547596417        2.9782795884       -3.8061804410
 O        -5.0226361026        3.4128061880       -2.7548408447
 C        -5.1147225802        1.4418062411       -4.1826390230
 C        -6.3350427940        0.7875707212       -3.4030100221
 O        -6.8788615499        1.2205683876       -2.3907831079
 C        -6.6526087512       -0.8013641888       -3.6859519342
 C        -7.5851932940       -1.5824404116       -2.7702578363
 C        -9.2014288172       -1.2902115809       -2.9326807586
 O        -9.6321211526       -0.9789955508       -4.0553850353
 C       -10.3086014668       -1.4907266850       -1.8630365117
 C       -10.1152371813       -0.3144594098       -0.9531810336
 O        -9.9474541182        0.7569954532       -1.5040307709
 C       -10.3545905196       -0.4199051178        0.5781365378
 C       -10.0831679970        0.8615807785        1.3461252204
 C        -8.5827557259        0.9748192432        1.2826674331
 O        -7.8975705445        1.5459531225        0.4882353893
 C        -7.7254159046        0.3329865271        2.4306364945
 C        -7.2145280314       -1.0291368249        1.5116927711
 O        -7.8982441988       -2.0090911800        1.6054860944
 C        -5.9892764406       -0.9848580983        0.6862982230
 C        -6.5982748454        1.2623172750        2.8937397466
 C        -8.5706615171       -0.2707908608        3.6033428571
 C       -11.5745024560       -1.1191640261       -2.6964867683
 C       -10.2316375892       -3.0218688993       -1.3344135737
 C        -5.0684412998        0.9947600510       -5.6518127646
 C        -3.8592509848        0.9700970738       -3.5253943050
 C       -10.4422156760        6.2866047112       -2.7695210338
 C        -8.2682469710        7.4911398111       -2.9915068561
 C       -10.0978175920        8.9618980776        2.2239452320
 C        -8.6548179436        8.2236668673        4.2581554664
 C       -15.5737481321        8.1405885033        6.0604125730
 C       -16.8376660419        5.9521964251        5.3602111704
 H       -18.8045043263        8.7950018589        3.2979234451
 H       -18.8083387504        7.0050361934        4.0415306295
 H       -18.4306142352        7.5124353781        2.4202025214
 H       -13.2257269910        8.5741235706        4.5078225303
 H       -13.9158541976        8.3737905738        2.8516279381
 H       -11.9992868501        7.0626441661        2.2120907574
 H       -12.3266051174        5.9335721009        3.5963557152
 H        -7.5957895160        5.7007503097        1.6035290409
 H        -7.4796267360        7.5644995945        1.7488922393
 H        -7.7041218287        7.6187020762       -0.4300610420
 H        -9.3683291769        7.6280891265       -0.0748799019
 H        -6.6157775249        5.2637849780       -2.8355985040
 H        -6.7399116137        5.8675283639       -4.4968373807
 H        -6.3486354354        3.6636806067       -5.5748071680
 H        -7.6096160810        3.1712098777       -4.5910950953
 H        -5.7814586495       -1.5089988526       -3.5682360241
 H        -7.0961053902       -0.9910115048       -4.6168242300
 H        -7.3541451144       -1.4272437760       -1.7492687673
 H        -7.3583938599       -2.6103087885       -2.8460076843
 H        -9.9932383056       -1.3131773237        1.0867326364
 H       -11.3885646405       -0.6674964694        0.7884931973
 H       -10.4898170221        0.9288091456        2.2970547201
 H       -10.3640344095        1.7827621559        0.7130873405
 H        -5.0417110348       -1.1190661101        1.2479159549
 H        -5.9611115545       -0.0945008034        0.0335432917
 H        -6.0122918524       -1.8288610349        0.0313693360
 H        -5.5649407381        0.9682175408        2.6213283857
 H        -6.5706531829        1.1351067113        3.9584453005
 H        -6.6587707666        2.2930607642        2.7864954109
 H        -8.9216183863        0.4540858623        4.3008448094
 H        -7.7856756786       -0.6867954797        4.2209538808
 H        -9.2930360664       -0.9897728924        3.3371526804
 H       -12.4351869041       -1.3609889242       -2.0830727865
 H       -11.6803290156       -1.4784916240       -3.6471597302
 H       -11.6693253358       -0.0517166405       -2.9384364020
 H       -11.0761877304       -3.4449794617       -1.8481950989
 H       -10.4648628762       -2.9840582104       -0.2833919592
 H        -9.2211520512       -3.3860462227       -1.5672337818
 H        -6.1303989338        0.8569094395       -5.9294389955
 H        -4.2886872448        0.2169151461       -5.7192737078
 H        -4.6118126681        1.8248850724       -6.2649179243
 H        -3.5689606937        1.6384549984       -2.7297992440
 H        -3.0622278700        1.0699932950       -4.3156870484
 H        -3.9217039625       -0.1115034731       -3.1673477072
 H       -10.7894430085        7.2735921023       -2.5605355075
 H       -11.0106867688        5.6014350205       -2.1616023590
 H       -10.5235456828        5.9655607325       -3.7550565629
 H        -8.7004503579        8.4163431825       -2.7531964129
 H        -8.2128965183        7.5776277420       -4.1376377634
 H        -7.2726147882        7.3928641526       -2.6057892991
 H        -9.2230933013        9.4892851997        1.6172539494
 H       -10.7071650108        9.7530378872        2.6702565711
 H       -10.8189975704        8.5288628576        1.5048045364
 H        -7.8894565727        8.8094648857        3.7743880724
 H        -8.2479616315        7.3718120242        4.9261675883
 H        -9.0633835370        8.9676172989        4.8933408023
 H       -16.3819811639        8.7460941935        6.3919385885
 H       -14.9293690159        9.0256138063        5.8924783886
 H       -15.1497141770        7.5560855758        6.8760626727
 H       -17.2337612540        5.4650796958        4.5354565233
 H       -17.5266860541        6.4920434691        5.9790958830
 H       -16.1186889328        5.5143611999        5.9289703214
 Na       -8.3103316593        2.4959106547       -1.3551778793
