117

 C       -18.1704621827        8.0246168933        3.8538607885
 C       -16.7864507850        8.5106427436        4.0110544235
 O       -16.2093457945        9.3972826304        3.3342359842
 C       -15.8845328938        7.5459011460        4.8605551040
 C       -14.8286040090        6.9893983577        3.6847088482
 O       -15.1510876820        5.9649207841        3.1625093229
 C       -13.5803427406        7.8838924650        3.3843883995
 C       -12.3631558940        6.9838237328        3.1389973260
 C       -11.1193515483        7.6387782187        4.0037341533
 O       -11.3326803362        8.2624779706        5.0536221855
 C        -9.7834204996        7.8242139969        3.2360981433
 C        -9.4498051987        6.5767383430        2.1822857975
 O       -10.1700555378        5.6103518628        2.0926863964
 C        -8.1311339196        6.5196218157        1.4058471035
 C        -8.2409271955        7.1473534608       -0.0026904525
 C        -8.5347527671        5.9124277457       -1.0023388002
 O        -8.3904005768        4.7800720114       -0.6167519229
 C        -8.9909937173        6.1086010483       -2.5036421793
 C        -8.3708586968        4.8894438076       -3.2945242445
 O        -8.9690878110        3.8637149091       -3.3398981668
 C        -6.8507196369        4.8407852256       -3.7876746523
 C        -6.5272500100        3.5263408865       -4.4713104769
 C        -5.4859358545        2.6305082152       -3.5978147430
 O        -4.7325104125        3.1707538711       -2.8438454013
 C        -5.3166447802        1.2113489194       -4.0766595273
 C        -6.3650207377        0.2518701142       -3.3383058646
 O        -6.6023450801        0.7293128072       -2.2345264317
 C        -6.7911327738       -1.0184754009       -3.8339474235
 C        -7.7836702757       -1.6439155638       -2.6999689962
 C        -9.2246090207       -1.3307479904       -3.1665117677
 O        -9.5084748414       -0.7876338923       -4.1870899429
 C       -10.2626386378       -1.6005438350       -1.8864237914
 C       -10.1555309086       -0.3001199894       -0.8673894213
 O        -9.6882388479        0.7414397903       -1.3128007960
 C       -10.5241625093       -0.5226022072        0.6314615042
 C       -10.1827933015        0.8089590328        1.3217062300
 C        -8.6696830529        1.0041151313        1.3738500376
 O        -8.1504849035        1.8098267757        0.6074056309
 C        -7.7724624704        0.2850510910        2.4438742345
 C        -7.1642149424       -0.9443211602        1.6753679220
 O        -7.7665584642       -1.9795560773        1.7945782636
 C        -6.1878207331       -0.6281457305        0.4888808138
 C        -6.5587364967        1.2587347403        2.7854177688
 C        -8.4284304860       -0.1938029282        3.7046057850
 C       -11.7743393161       -1.7629250866       -2.1534405022
 C        -9.8543157125       -2.9684307399       -1.1419828530
 C        -5.3092100205        1.0381648495       -5.6545148407
 C        -3.9124361261        0.7092828272       -3.3897959230
 C       -10.4924894708        5.8891624597       -2.6221779772
 C        -8.5297430347        7.4890686110       -3.1201714031
 C       -10.0194233914        9.0491878215        2.2197845590
 C        -8.5226770442        8.0646254803        4.2186860048
 C       -15.1747031842        8.1201926349        6.0362178688
 C       -16.5608263023        6.1149730659        5.3872223184
 H       -18.5698913208        8.2661588534        2.8867020467
 H       -18.7473482408        8.1933637492        4.6913075624
 H       -18.2709692854        6.9925114410        3.8146372825
 H       -13.5060832685        8.4663827430        4.1854529168
 H       -13.8597518438        8.5958639627        2.5303317000
 H       -12.1098766800        7.2039834384        2.1513739714
 H       -12.5966553798        5.8889126559        3.3575096311
 H        -7.8336319399        5.5080633851        1.3133627558
 H        -7.3804371480        7.1001121137        1.9516669879
 H        -7.4101651561        7.8541988869       -0.1855415887
 H        -9.0523508537        7.8237984179       -0.0690551740
 H        -6.2127800194        4.9267938415       -2.9190517572
 H        -6.6384392263        5.7391841136       -4.4222082442
 H        -5.7814225415        3.7604161742       -5.3075736267
 H        -7.2557135104        2.9381222996       -5.1526626397
 H        -5.9672084384       -1.6709565469       -4.0032261733
 H        -7.3304273479       -0.8356408697       -4.8229612932
 H        -7.5690194641       -1.2162761292       -1.6912444239
 H        -7.6508355878       -2.7379109798       -2.4568032657
 H        -9.9133557270       -1.2762857265        1.1639177971
 H       -11.4898546291       -0.9995524334        0.8957550600
 H       -10.5998468060        0.7686748073        2.3992724141
 H       -10.4168600166        1.7172426414        0.8503093884
 H        -5.2625222636       -0.1769714116        0.8210690860
 H        -6.6477335023        0.0762235159       -0.1812134638
 H        -5.9419747599       -1.5451563459       -0.0952881309
 H        -6.2337888071        1.8225827184        1.8867028785
 H        -5.7097722629        0.7986233493        3.2795008683
 H        -6.7787811260        2.1239867636        3.4391533056
 H        -8.5125228069        0.5664954950        4.5462232810
 H        -7.8484958744       -0.9702220642        4.2136347630
 H        -9.4341672830       -0.5917494301        3.3449075602
 H       -12.3551953257       -1.9491999747       -1.2679760560
 H       -11.9993964922       -2.4811264858       -2.9622143366
 H       -12.1365270162       -0.8937379741       -2.6417846636
 H       -10.6970901009       -3.6730329281       -1.1781971405
 H        -9.7132867893       -2.6886394143       -0.1202591694
 H        -8.9650768006       -3.2690257986       -1.5802722449
 H        -5.5460607783        0.0357500225       -5.8217050084
 H        -4.3573038578        1.4771590293       -5.9565241398
 H        -6.1607747589        1.5667690566       -5.9959013626
 H        -4.1152576839        0.3551178000       -2.3900362202
 H        -3.1946205198        1.4218382344       -3.2435553293
 H        -3.5240830690       -0.0746370148       -3.9809683594
 H       -10.9657763392        6.5196797320       -1.8520998472
 H       -10.7441381338        4.8383595093       -2.2895400221
 H       -10.7859138913        6.0039231404       -3.7104203209
 H        -8.4816399536        8.2294769730       -2.3431683031
 H        -9.3758530664        7.8781050835       -3.5079035525
 H        -7.6393661965        7.5807064573       -3.7618151610
 H        -9.2176628934        9.0883586101        1.5802110700
 H       -10.1656127440       10.0271053982        2.7336808595
 H       -10.9587174771        8.9482042815        1.6943826616
 H        -7.5463005463        8.0240905636        3.7458973929
 H        -8.5979530220        7.3951080704        4.9816610872
 H        -8.5926877503        9.0651295031        4.7872544241
 H       -15.8332439641        8.3813686202        6.9070682659
 H       -14.7373664630        9.0812311824        5.8832754574
 H       -14.3799393790        7.4706242345        6.3376070166
 H       -16.8467804685        5.6364974328        4.4521649661
 H       -17.4321589563        6.4272009287        5.9491858517
 H       -15.6899689476        5.7424610615        5.9442165969
 Na       -8.3849499895        2.5353172608       -1.7663472348
