117

 C       -16.1617115441       -1.9321395859        0.3846030369
 C       -14.7518998179       -2.3519629447        0.7925313751
 O       -14.4428874379       -2.5749030117        1.9393126849
 C       -13.7262818936       -2.6936927107       -0.4167725463
 C       -12.3362202070       -1.9684988305       -0.2491927757
 O       -12.1834948041       -0.9229940588       -0.8596821676
 C       -11.0967055580       -2.6078450191        0.4580713307
 C        -9.8775071952       -1.5749068290        0.5206666716
 C        -8.5530271417       -1.9164032399        1.2668300074
 O        -8.1356723996       -3.0145919357        1.3584090477
 C        -7.5523102507       -0.7563363269        1.7254546607
 C        -8.2272984010        0.5036916805        2.4762509424
 O        -9.2821327752        1.0156521362        2.1772760275
 C        -7.2573873690        1.3179454101        3.4120418281
 C        -8.0617193195        2.4127158102        4.1896229093
 C        -8.6891540113        3.3708851736        3.1846774848
 O        -8.0703998375        3.7854412160        2.2705377351
 C       -10.0493847029        3.9810592951        3.6556817468
 C       -10.8513088618        4.3297350905        2.3260686059
 O       -10.7200772295        5.4661956510        1.7847019913
 C       -11.9453008485        3.3323512664        1.8235320982
 C       -12.3347778629        3.4314203136        0.3006586328
 C       -10.9938674701        3.3804634733       -0.4854366468
 O        -9.9851872997        3.4297961258        0.1990092425
 C       -10.8330805690        3.1407880161       -2.0497163201
 C       -10.0055901393        4.3132148242       -2.5252739228
 O        -8.8436433088        4.4079515431       -2.0940549845
 C       -10.6126653865        5.4028560072       -3.4641934499
 C        -9.6235378284        6.5880457109       -3.6083130775
 C       -10.1527981677        7.8731561982       -4.1869857518
 O       -11.2925198830        7.9227745422       -4.5698495624
 C        -9.0948254648        9.0922116683       -4.2415785246
 C        -8.5495825992        9.3225373807       -2.8309101121
 O        -7.4803932244        8.8068127642       -2.4633495315
 C        -9.4393015236       10.1316900590       -1.7949406629
 C        -8.9274776415       10.1749278690       -0.3474195777
 C        -8.4831223806        8.6768412884        0.1363124331
 O        -9.2311577091        7.7559873019       -0.0179166744
 C        -7.0782474335        8.3939259082        0.9476790808
 C        -6.3227194660        7.4431984849       -0.1416039188
 O        -6.5675079552        6.2297754911       -0.2074018417
 C        -5.2842836848        8.2046919316       -0.9562538769
 C        -6.2447400849        9.6500949800        1.2968163701
 C        -7.3403158027        7.5701372319        2.2197686178
 C        -7.9380247845        8.7963280006       -5.3019058619
 C        -9.9524902628       10.2867690193       -4.7732307115
 C       -10.0477971885        1.8363656275       -2.0455475159
 C       -12.2723805734        3.0375225814       -2.8133284531
 C       -10.8721932210        3.0642175945        4.5850624418
 C        -9.7142059177        5.3881974992        4.3005909226
 C        -6.4516990809       -1.5268525807        2.5633192326
 C        -6.9856816407       -0.2206677162        0.4550085373
 C       -13.6642603418       -4.1441229939       -0.3136513383
 C       -14.4234947350       -2.1726011842       -1.6702302730
 H       -16.5715193488       -2.5422285261       -0.4298433120
 H       -16.3128508571       -0.8872603864       -0.2012977776
 H       -16.7718172704       -1.8880589292        1.2947520281
 H       -10.8131934843       -3.4801322150       -0.1815223471
 H       -11.1633308463       -2.9664389068        1.4482375065
 H       -10.2685980933       -0.6026985591        0.8442005685
 H        -9.6545994242       -1.2274310551       -0.4624199136
 H        -6.4670225280        1.6961216681        2.7569029344
 H        -6.6476850386        0.7564898489        4.1216063538
 H        -7.3595921819        2.8764524188        4.9159138602
 H        -8.7517753852        1.8764296976        4.7661418691
 H       -12.8129302643        3.5436098102        2.5204002304
 H       -11.6057938660        2.3422966446        2.1878444525
 H       -12.7815195922        4.4080933823        0.1641779643
 H       -13.0744206941        2.6422149002        0.0344898643
 H       -11.5870925843        5.7341268243       -3.0289949641
 H       -10.8809250817        4.8938105056       -4.4519631054
 H        -8.7240196013        6.2153305451       -4.1977944988
 H        -9.1960308031        6.8140077938       -2.5959472443
 H       -10.4848664070        9.8183224808       -1.6927040619
 H        -9.5497732668       11.2082070574       -2.1854467770
 H        -9.8220475443       10.6144937098        0.2581580139
 H        -8.0534461630       10.8542225081       -0.3686914199
 H        -5.4998435760        9.2254259032       -1.3552935545
 H        -4.8376166496        7.5351190413       -1.7635386040
 H        -4.4657591040        8.4537665466       -0.1988429214
 H        -6.7990890641       10.2788609283        1.9815640023
 H        -6.0817655291       10.2782199538        0.4721479217
 H        -5.2266103302        9.4823929907        1.8701878064
 H        -7.8117066998        6.6265464591        1.8391946694
 H        -7.9287799672        8.1148144581        2.9787290032
 H        -6.3917742714        7.2579577110        2.5754909579
 H        -8.2452026886        8.4974228455       -6.3357203627
 H        -7.2125911967        8.0170862388       -4.9090618413
 H        -7.4405474445        9.7334713965       -5.3895903197
 H        -9.9352512063       10.1761912137       -5.8720295071
 H        -9.3976062584       11.2177993571       -4.6135815084
 H       -11.0220814454       10.3131105346       -4.4178615691
 H       -10.7144556193        1.1287035795       -1.6369448442
 H        -9.0598421282        1.8460749923       -1.5471354303
 H        -9.9206431498        1.4483102262       -3.0134063287
 H       -12.9593267227        3.8792000753       -2.4933562251
 H       -12.8075484893        2.0871842795       -2.6179555000
 H       -12.2521645748        3.3186670719       -3.9296282761
 H       -11.0667763050        2.1599823447        3.9822494033
 H       -11.7389237845        3.5596872025        4.9264249495
 H       -10.2174563647        2.8883713018        5.4647866839
 H       -10.1713483053        6.2390157594        3.7867350615
 H        -8.6084316969        5.5296881324        4.2434497829
 H       -10.1921967106        5.3963250184        5.2944678594
 H        -6.0368169362       -2.2272752573        1.8592713242
 H        -6.8472011677       -1.9821252650        3.4197179651
 H        -5.5788460669       -0.9510988402        2.8118973629
 H        -7.7348819106        0.2617211725       -0.1141240185
 H        -6.5367789101       -0.9857967665       -0.1975178664
 H        -6.1727949985        0.4581533660        0.6626848446
 H       -13.2019925548       -4.5682805942        0.5784982964
 H       -13.1988148110       -4.8039157260       -1.0414517663
 H       -14.6944881538       -4.5895549526       -0.3378291578
 H       -14.9819111681       -1.2005102391       -1.5830070259
 H       -15.1270838573       -2.8297291467       -2.2081552278
 H       -13.6569984418       -1.9775260930       -2.4277085499
 Na       -8.6892190445        5.3912624972        0.3208983814
