117

 C       -18.3327017910        8.4978314704        3.9960756114
 C       -16.7799177904        8.4770748434        4.1430406901
 O       -16.2587485696        9.4249861828        3.6969517654
 C       -15.7352434881        7.4713218850        4.8392564720
 C       -14.9687863524        6.9749572289        3.5883861633
 O       -15.1965328110        5.9864948632        2.8793106918
 C       -13.6788886527        8.0576846717        3.1154931423
 C       -12.3895722836        7.2101547682        3.0138438351
 C       -11.2021020877        7.9057939759        3.7253610054
 O       -11.2537565962        8.4899899747        4.7547254813
 C        -9.7592574747        7.9523298216        2.9542640082
 C        -9.6275603745        6.7426159351        1.9820457991
 O       -10.3689998190        5.7497763025        1.8079594562
 C        -8.0429358347        6.7595074828        1.3550121934
 C        -8.1865344504        6.9581465809       -0.1599993137
 C        -8.3919032654        5.7632284041       -0.9894438957
 O        -8.0872242090        4.6137475648       -0.6736914445
 C        -9.0472838271        6.1058123476       -2.3980022968
 C        -8.3616307726        4.8580790209       -3.3000545520
 O        -9.0142653456        3.8306774504       -3.5145731077
 C        -6.9147261280        4.8745611675       -3.7775735184
 C        -6.3063069019        3.5295130131       -4.4667941920
 C        -5.3154394796        2.6452649249       -3.6008401159
 O        -4.6175980015        3.0611059379       -2.7016542992
 C        -5.1608681207        1.0418498218       -4.0359263089
 C        -6.3509998958        0.2732243766       -3.1927308114
 O        -6.9486510632        0.5592326548       -2.1566982526
 C        -6.8828360213       -1.0462140735       -3.8160108521
 C        -7.8943996639       -2.0137001947       -3.1482937655
 C        -9.3886464505       -1.5450317051       -3.0762162278
 O        -9.9349838103       -0.8405877001       -3.8989271534
 C       -10.0865971496       -1.8720032359       -1.7011756350
 C       -10.1177989873       -0.4323927899       -0.8601903774
 O        -9.7147705953        0.4922122936       -1.5234090221
 C       -10.6605928880       -0.3806935910        0.6276769581
 C       -10.2367887801        0.8077595938        1.4919655414
 C        -8.6695526456        1.1577052459        1.5203768572
 O        -8.3133407151        2.1064517705        0.8100564376
 C        -7.7492006163        0.4148517090        2.4712971309
 C        -7.1435557284       -0.8379351996        1.6349354957
 O        -7.5991596398       -1.9753424868        1.8418895188
 C        -6.1712093707       -0.5752862105        0.4941920816
 C        -6.5373743145        1.2388531307        2.9236387979
 C        -8.4108943314       -0.0094088153        3.8018136223
 C       -11.5655507735       -1.9934628930       -2.1737992928
 C        -9.6315852156       -3.1188677173       -0.7892785552
 C        -5.4131821806        0.7817086393       -5.6413368532
 C        -3.7507974095        0.4316047032       -3.6650778909
 C       -10.5578013007        5.8642517449       -2.2184692469
 C        -8.7595338347        7.3217625497       -3.1218765144
 C        -9.5711920237        9.3084760672        2.1680509355
 C        -8.7338143363        7.8860297907        4.1917719486
 C       -14.8881685562        8.3728207380        5.7538488810
 C       -16.5727979347        6.3895349954        5.6353411897
 H       -18.6419512075        8.5587392428        2.9365394611
 H       -18.7327380377        9.2672464409        4.7278831695
 H       -18.9279860879        7.6328109295        4.2984530742
 H       -13.7377821883        8.8808961066        3.9981007404
 H       -14.0252011107        8.5767197062        2.2624664191
 H       -12.1724409512        6.9240154679        1.9159379564
 H       -12.6664155981        6.4164593531        3.6126752778
 H        -7.5137029482        5.6971529055        1.4259360222
 H        -7.4174868496        7.5037996541        1.7917553536
 H        -7.4053107478        7.5182059149       -0.7155972282
 H        -9.0346322727        7.7119167727       -0.4300002291
 H        -6.1758880609        5.1223928096       -2.9538682386
 H        -6.9074721199        5.7521499800       -4.4038620168
 H        -5.9541906015        3.7487360679       -5.4255359988
 H        -6.9373538998        2.7356183231       -4.6016383568
 H        -6.0511310028       -1.6788242326       -4.2868606246
 H        -7.4722945796       -0.6984718964       -4.6652368731
 H        -7.5258925763       -2.3118534689       -2.1611972231
 H        -7.9311304333       -2.9790885012       -3.6563518704
 H       -10.3550275021       -1.3445006226        1.0562471903
 H       -11.7495606490       -0.4725777739        0.7759922332
 H       -10.5183238634        0.6837826224        2.4855813222
 H       -10.7248827449        1.7607356974        1.0665228068
 H        -5.2235636382       -0.1866367944        0.9079246026
 H        -6.6138615518        0.2911073613       -0.0710753380
 H        -6.0295934596       -1.3847035925       -0.1894635917
 H        -6.4880112483        2.1813693144        2.4355204468
 H        -5.5419418209        0.7537125067        2.8386033467
 H        -6.5319218999        1.6168054932        3.9598203891
 H        -8.9774639936        0.7582177182        4.2311687434
 H        -7.7571598489       -0.3044869821        4.6307715874
 H        -9.0260024290       -0.8062925193        3.5244357561
 H       -12.3560480994       -1.7797587123       -1.4100994554
 H       -11.8050455339       -2.9982434553       -2.5942352805
 H       -11.7293112537       -1.3438761675       -3.0761549823
 H       -10.4406167873       -3.3560835454       -0.1575855673
 H        -8.6868663443       -2.9266248246       -0.2586454669
 H        -9.5949777473       -3.8832148541       -1.6251992239
 H        -4.5228149521        0.1437912958       -5.9533541942
 H        -5.4018288251        1.7723404097       -6.0443129246
 H        -6.3188436061        0.1190372432       -5.6621694410
 H        -3.7695719131       -0.2625766908       -2.7973358359
 H        -3.1604341245        1.3104765285       -3.1372401122
 H        -3.1341964134        0.0610430258       -4.5306260547
 H       -10.7635960708        6.5745022603       -1.4181623670
 H       -10.8601595148        4.9534438755       -1.8160846349
 H       -11.0451844211        6.0775504147       -3.1396563807
 H        -8.6505335728        8.2128248592       -2.4149860995
 H        -9.6513888306        7.7380806698       -3.7087861459
 H        -7.8053271896        7.2137308093       -3.6610874576
 H        -8.4630857839        9.3196582954        1.9310511883
 H        -9.8988251139       10.1426692226        2.6940225591
 H       -10.2530963947        9.2728557594        1.2871759691
 H        -7.6773334562        8.0772435999        3.8396658478
 H        -8.6934722626        6.7733622206        4.5731166811
 H        -9.0087964508        8.4392840845        5.0452348826
 H       -15.1659284698        8.4011371919        6.8068675302
 H       -14.9347527537        9.4435671502        5.3613446513
 H       -13.7741785165        8.2048283193        5.7500539816
 H       -17.1162962168        5.8652867647        4.8686084950
 H       -17.2005454380        6.9659681426        6.2928716400
 H       -15.7685140804        5.8939377468        6.1277105732
 Na       -8.3399934604        2.3680525425       -1.5469468228
