117

 C       -18.2271869168        8.6988555238        4.5365884608
 C       -16.7199495290        9.0298521587        4.3868436322
 O       -16.4545487125       10.0494045103        3.8083741979
 C       -15.7075928190        7.8639951886        4.7763079607
 C       -14.9437264603        7.3166373679        3.5135031085
 O       -15.1905426567        6.1518403359        3.1463332534
 C       -13.8623187044        8.1345341837        2.6400540592
 C       -12.5161189521        7.4009156718        2.3772595046
 C       -11.3220296548        8.1663750898        3.2359805946
 O       -11.5597946997        8.9417509594        4.0899908875
 C        -9.7203154882        7.9381473914        2.8616157823
 C        -9.3849016752        6.9685684980        1.8307378676
 O       -10.2430615915        6.2335868127        1.2745847996
 C        -8.0243331661        6.8653026440        1.2632157134
 C        -7.8007093821        6.9558870254       -0.2722713217
 C        -8.0737545036        5.6232240230       -1.0607805492
 O        -7.5786680139        4.5611238224       -0.6155918589
 C        -8.9590163030        5.5403953057       -2.4133809056
 C        -8.4011499483        4.4876116091       -3.2754942837
 O        -9.2168969303        3.7551706454       -3.8571273372
 C        -6.8704108253        4.4594235388       -3.5595298261
 C        -6.4468397193        3.3432833473       -4.4275584472
 C        -5.4973980510        2.4666666286       -3.7363665932
 O        -4.9469868244        2.9178613435       -2.7165449388
 C        -5.3526470674        0.9558747086       -4.1994264982
 C        -6.7230348579        0.1355011864       -3.5137372151
 O        -7.2945364014        0.5462069849       -2.5206494223
 C        -7.1754579470       -1.1490392675       -4.2122577315
 C        -7.7308203350       -2.0486387003       -3.0042965485
 C        -9.2686874960       -1.7084863504       -2.8935398539
 O        -9.9186572571       -1.1566918662       -3.7687933318
 C        -9.9094731489       -1.9931616617       -1.4825974459
 C        -9.9903459610       -0.6118060640       -0.7048652518
 O        -9.8614859026        0.4193352754       -1.3074217363
 C       -10.3371446753       -0.5035116375        0.7236892157
 C       -10.2256846559        0.8853155572        1.3008993610
 C        -8.6430330331        1.2165949472        1.5722839630
 O        -8.1949131791        2.2510192860        1.1424676598
 C        -7.7415423010        0.4413453077        2.6334128759
 C        -7.1711931201       -0.7333543168        1.8064621876
 O        -7.7261397963       -1.8459379926        1.8150568951
 C        -6.0656551099       -0.3968123533        0.8197969335
 C        -6.7688688970        1.3791972040        3.1063307666
 C        -8.5190032642       -0.0997190869        3.8788479010
 C       -11.4507136141       -2.3759354590       -1.7530094417
 C        -9.2763777835       -3.1217698708       -0.6311857492
 C        -5.2964761400        0.9143541327       -5.7378867863
 C        -4.2477837357        0.2042057395       -3.4899147631
 C       -10.4734693179        5.3127615424       -2.1396353719
 C        -8.7284442488        6.8859745510       -3.2483301195
 C        -9.4235889451        9.4388156554        2.3233955697
 C        -9.0081754802        7.6652736575        4.1736391164
 C       -14.6285272654        8.3402198548        5.9292302187
 C       -16.3889955679        6.6635538726        5.3113514461
 H       -18.6113025673        8.1611330127        3.7305261146
 H       -18.6455813759        9.7088514505        4.4558425623
 H       -18.6384700277        8.2587798259        5.4162924320
 H       -13.7293931781        9.1989681785        3.2877994212
 H       -14.4000843056        8.3954237089        1.7495373663
 H       -12.3843830141        7.5213784943        1.3023939676
 H       -12.4940661153        6.3342605328        2.6258902214
 H        -7.8424185831        5.8129605879        1.4399152846
 H        -7.2155090084        7.3992504243        1.7249360621
 H        -6.6846111432        7.2072775298       -0.4540314415
 H        -8.2345234565        7.8188947205       -0.7331098506
 H        -6.4194668259        4.4076715336       -2.5407260722
 H        -6.4944786553        5.4088355691       -3.9176423120
 H        -6.2690602806        3.5495331149       -5.5379777095
 H        -7.3115461066        2.5747410261       -4.3810870354
 H        -6.3677492475       -1.6219207611       -4.7927728139
 H        -7.9874684529       -1.0705344189       -4.9456135129
 H        -7.3277372167       -1.8396660608       -1.9799460789
 H        -7.7246739526       -3.1623505156       -3.2208054745
 H        -9.6554600765       -1.2074322290        1.2861869441
 H       -11.3451072286       -0.8928536886        0.9004491876
 H       -10.5626123909        1.0009264266        2.3133761594
 H       -10.6982388693        1.6051292233        0.5494158299
 H        -5.0963692498       -0.8544722454        1.0634194344
 H        -5.8833562474        0.6865228107        0.7714582817
 H        -6.4330245903       -0.6614976676       -0.1457743584
 H        -5.9290190222        1.7193797697        2.4769238541
 H        -6.2886692104        1.1000133336        4.0569369096
 H        -7.2796196401        2.2999921901        3.2607502714
 H        -8.9269555776        0.6938796000        4.5555344014
 H        -7.7472156987       -0.6311668624        4.5165562373
 H        -9.3016507336       -0.8778706448        3.6716485404
 H       -11.9334963929       -2.6033798171       -0.8048371518
 H       -11.6106108015       -3.2342035013       -2.3231342563
 H       -12.0303941730       -1.5198717233       -2.1146170536
 H        -8.2539126216       -2.8372115266       -0.4445297383
 H        -9.2563217706       -4.0616926014       -1.1511970301
 H        -9.7517210131       -3.0168801193        0.3558308544
 H        -5.6026421399       -0.0735853203       -6.0361098711
 H        -4.2791777969        0.8803678466       -5.9804596563
 H        -5.9276209807        1.7196215840       -5.9921132567
 H        -4.1262905034       -0.7355558585       -3.8758478696
 H        -4.3113057473        0.1436833778       -2.4100956762
 H        -3.3193826437        0.7071911386       -3.6553587702
 H       -10.9797068336        6.0584251332       -1.4460407035
 H       -10.4377954283        4.3294109933       -1.5821581733
 H       -10.9048843041        5.1050373774       -3.1324479665
 H        -9.5024507921        7.6203494175       -3.3913333717
 H        -8.1901245559        6.4811382197       -4.1686947583
 H        -7.9058077145        7.4383886517       -2.8846247567
 H        -8.3454474882        9.5063313465        2.0106878802
 H        -9.5235990922       10.1029604166        3.1328112170
 H       -10.0778759098        9.6772567591        1.5135736546
 H        -7.9690529867        7.4901880107        4.0705376007
 H        -9.2522811528        6.6681622581        4.6875621396
 H        -9.2909976414        8.4130657297        4.8199170423
 H       -15.1613838942        8.9636029461        6.5904270347
 H       -13.7506375019        8.8313220605        5.4910790035
 H       -14.2410701350        7.6586948490        6.6477409641
 H       -17.0668110267        6.3701379846        4.4983614737
 H       -16.8146156690        7.0464488854        6.2787018971
 H       -15.5567857846        6.0136798679        5.3517805954
 Na       -8.3475458348        2.3465250381       -1.1207192374
