117

 C       -18.2127464820        8.8037588918        4.7170835751
 C       -16.7518128024        9.0826638742        4.3772771517
 O       -16.1800719236       10.0518807361        3.9588372286
 C       -15.7373089353        7.9001984500        4.7647826656
 C       -14.8177812563        7.4028870664        3.4750165817
 O       -14.9971555179        6.3223629028        3.0714358601
 C       -13.7579946161        8.2852060323        2.6182354609
 C       -12.4656231648        7.5711711597        2.2667051852
 C       -11.4025105430        8.1361937090        3.0438890730
 O       -11.6474385751        9.0566002295        3.8491524896
 C        -9.8625448348        8.0211084867        2.7687209791
 C        -9.4854572311        6.9426326661        1.6005323835
 O       -10.3307817515        6.2650374734        1.0396516776
 C        -7.9037294547        6.8934566313        1.2834698979
 C        -7.7310153079        6.8802395390       -0.2159922077
 C        -8.1123202824        5.6614131794       -0.9263957495
 O        -7.5937988933        4.6131049730       -0.6101614507
 C        -8.9489980157        5.4999670504       -2.2849736486
 C        -8.4261039519        4.4298649971       -3.2525130301
 O        -9.1608890666        3.6521008129       -3.8329640593
 C        -6.9436511299        4.4175211334       -3.6321138645
 C        -6.4688175834        3.3330750343       -4.5919117522
 C        -5.6196698760        2.3030661197       -3.6396641658
 O        -4.9541161761        2.6598466806       -2.7561197232
 C        -5.5146432036        0.8317768423       -4.1980222189
 C        -6.8241734951        0.1805402835       -3.6818101741
 O        -7.3856799160        0.6135976960       -2.6632419440
 C        -7.1688023818       -1.2093612009       -4.1427467011
 C        -7.7726771246       -1.8155810099       -2.9483197568
 C        -9.3116530799       -1.6494254871       -2.8015983481
 O        -9.9541828383       -1.3108610505       -3.7261883516
 C        -9.8628343254       -1.9745097068       -1.3608181751
 C        -9.8964270356       -0.6220300685       -0.6449953335
 O        -9.8125071524        0.3713254089       -1.3646459879
 C       -10.2372646063       -0.6216594031        0.8787304543
 C       -10.1367578856        0.7828786772        1.3786836178
 C        -8.7311248664        1.2924926729        1.7743496519
 O        -8.2520659910        2.2395353348        1.1351883114
 C        -7.8005491520        0.4832460133        2.7412002839
 C        -7.1899087557       -0.7320210807        1.8083262290
 O        -7.6863549471       -1.8907687048        1.7289040924
 C        -6.0217968031       -0.3725960156        0.8814941817
 C        -6.6577596746        1.4075229046        3.4320016239
 C        -8.6571889227       -0.0360368034        3.8797991605
 C       -11.3217718108       -2.4073818820       -1.6392170508
 C        -9.0545120785       -3.0905476370       -0.7122543922
 C        -5.1993745409        0.6235543214       -5.6806313175
 C        -4.3026297315        0.0294052496       -3.5074332911
 C       -10.4586414902        5.3097598809       -2.0139793644
 C        -8.8707907150        6.8010435558       -3.2537386276
 C        -9.4307068706        9.4071478582        2.4188512884
 C        -9.1852316003        7.6705621735        4.2057266940
 C       -14.6015784814        8.5089969776        5.6997552679
 C       -16.5412359308        6.6733890448        5.4603957552
 H       -18.6277802345        7.9065315674        4.1858423622
 H       -18.8780740031        9.6030926024        4.3637247382
 H       -18.3213394630        8.7073975895        5.7315340469
 H       -13.5799535728        9.2225898752        3.0509687829
 H       -14.4031721580        8.4956752816        1.6884999080
 H       -12.2623558171        7.8992376397        1.1699291787
 H       -12.3761904034        6.5379793120        2.3170795416
 H        -7.3734739115        6.0246133468        1.8511107159
 H        -7.3874829679        7.7696308751        1.5180550531
 H        -6.6843018274        7.0167819217       -0.5090286701
 H        -8.1566068530        7.9313365397       -0.6288841971
 H        -6.3348411908        4.6335514804       -2.6982769294
 H        -6.8525232327        5.3298215465       -4.1872423172
 H        -5.7249796284        3.6438046752       -5.2804629197
 H        -7.2999489764        2.9665591411       -5.1166550528
 H        -6.3766125414       -1.9305418068       -4.5007213736
 H        -7.8702309657       -1.3175136683       -4.9313923014
 H        -7.3255388554       -1.5261409519       -1.9695555184
 H        -7.6484022676       -2.8998338255       -3.1687668322
 H        -9.7465584495       -1.3452009243        1.5178490369
 H       -11.3292813181       -0.8524349700        0.8973838486
 H       -10.7825726019        0.9768537128        2.2275659588
 H       -10.4282388313        1.3987602556        0.4742298458
 H        -5.1007733947       -0.8289599603        1.2285162640
 H        -5.8103686515        0.7181220206        0.9669361815
 H        -6.2585039117       -0.5524754539       -0.1522835164
 H        -5.7568148101        1.5815926563        2.9205994989
 H        -6.3239144127        1.1081600838        4.4656878578
 H        -7.0878584626        2.4636973212        3.5090297424
 H        -8.8534661174        0.7681509683        4.5918648153
 H        -8.1462116743       -0.8571243935        4.4923549190
 H        -9.6305457158       -0.4667246138        3.5705386262
 H       -12.0013280247       -2.5646257029       -0.8070803803
 H       -11.4371045120       -3.3708833121       -2.2380060149
 H       -11.7384258994       -1.5384786177       -2.1156522988
 H        -8.1344694108       -3.2253704670       -1.1587082404
 H        -9.5393722074       -4.0699058323       -0.8360486976
 H        -8.7946826835       -2.7606871441        0.2946697934
 H        -5.7878234723       -0.2942294968       -5.9616132676
 H        -4.2474840783        0.1754470722       -5.7560874365
 H        -5.4196511408        1.5912615750       -6.1170161568
 H        -3.9197908238       -0.7317301582       -4.1975743792
 H        -4.3686260276       -0.4149246859       -2.4889264889
 H        -3.5002207144        0.7119114951       -3.3682058359
 H       -10.9790002185        6.0348553998       -1.3142607570
 H       -10.4061671281        4.3600880676       -1.5091636136
 H       -10.9073282796        5.0984655350       -3.0288209460
 H        -9.9014197032        7.3220736478       -3.2776923682
 H        -8.5212803890        6.3974098257       -4.1687264594
 H        -8.1710516360        7.6691209435       -3.1134151889
 H        -8.3833751497        9.3534616734        2.1442855655
 H        -9.3664135288        9.9492155564        3.3144130190
 H        -9.9952323773        9.8619433717        1.5881404183
 H        -8.1355024812        7.2777828801        4.1831082166
 H        -9.6127543568        6.7436408693        4.6085811249
 H        -9.3647830737        8.4372867617        4.9506075333
 H       -15.1116486335        9.1995106723        6.3248227422
 H       -13.7338386183        8.8547194053        5.1611120174
 H       -14.2194774051        7.8916043874        6.4921730902
 H       -17.2648056639        6.4118958448        4.6854389190
 H       -16.8977319507        7.1523094637        6.3350056437
 H       -15.7670834269        5.8638359804        5.5620088053
 Na       -8.3536195084        2.4168212507       -1.2889992963
