117

 C       -18.0376041888        9.2502545791        4.8435716120
 C       -16.4564780181        9.2737679695        4.3714322148
 O       -15.9395818583       10.2639025723        3.9009248404
 C       -15.5012409849        7.9914266292        4.6532058696
 C       -14.9120485217        7.4301421510        3.3761052854
 O       -14.7986055566        6.2038836815        3.0561677524
 C       -14.2281986333        8.4724304333        2.4649568926
 C       -12.7951460033        8.0529489456        2.0123553175
 C       -11.5643304128        8.5960450782        2.8829695409
 O       -11.7386476599        9.2724528084        3.8379489483
 C       -10.0499305233        8.1019079688        2.5680038994
 C        -9.4893463276        7.1817404662        1.4336399569
 O       -10.3662049233        6.5425692215        0.8135972579
 C        -7.9512147442        6.8160393495        1.1554427071
 C        -7.7790422498        6.8350477251       -0.4224107622
 C        -8.1640078144        5.5648336367       -1.0827384117
 O        -7.7853955259        4.5030692204       -0.5246789675
 C        -9.0049557919        5.5698180758       -2.3181014645
 C        -8.3495467514        4.3706157066       -3.3116257058
 O        -9.0128926294        3.3549344297       -3.4061545356
 C        -6.8904781819        4.4511210576       -3.9057102275
 C        -6.2401383360        3.2544267087       -4.6565783593
 C        -5.4140328987        2.2778932113       -3.7878365713
 O        -4.9852081220        2.4063875510       -2.6348286795
 C        -5.4370698490        0.6970657707       -4.2351612784
 C        -6.8694499886        0.2333760092       -3.8723389476
 O        -7.5988941365        0.9847630741       -3.2687134341
 C        -7.2763049252       -1.2226296870       -4.1716836912
 C        -7.7959858835       -2.2871037082       -3.0593051958
 C        -9.3171947747       -1.9770750357       -2.7450537134
 O        -9.9445974798       -1.5764266753       -3.7040393017
 C        -9.9555140588       -2.0795984883       -1.2865508483
 C        -9.7723789246       -0.6050207971       -0.4632172407
 O        -9.4903838261        0.3673697022       -1.0803628594
 C       -10.2858949781       -0.6063705796        0.9628368068
 C       -10.2230299463        0.8691481372        1.5730358469
 C        -8.6666611222        1.3185938600        1.8098109688
 O        -8.0743874591        2.1075206656        1.0891401365
 C        -7.8657138164        0.4880531513        2.8945897514
 C        -7.0905281115       -0.5862139352        2.0297378440
 O        -7.6132362665       -1.6767878203        2.0355761990
 C        -5.9669675780       -0.1278652604        1.1540090891
 C        -6.8284224562        1.2685574848        3.6704104427
 C        -8.6539705730       -0.2598261560        3.9431402705
 C       -11.3410238876       -2.6295262796       -1.3416966725
 C        -9.1053241451       -3.1325659589       -0.4558259877
 C        -5.3341811836        0.4162546232       -5.8261650514
 C        -4.4792324295       -0.1129441783       -3.3357736228
 C       -10.2863957484        5.0638250939       -1.7512833116
 C        -9.1497058758        6.9646211036       -2.9674695716
 C        -9.1690073125        9.4096071322        2.3657973575
 C        -9.5663536974        7.3739582003        3.8371585227
 C       -14.4757522923        8.5972899255        5.6986963684
 C       -16.1205591893        6.7179272740        5.3792679367
 H       -18.3740232670        8.2043978317        4.8812109680
 H       -18.8418753519        9.5743755249        4.1313277442
 H       -18.1281138569        9.6907510598        5.9349103564
 H       -14.2676912564        9.6338911211        2.8707409471
 H       -14.8751120771        8.4700099643        1.6804335448
 H       -12.6814761490        8.4109527390        1.0358748850
 H       -12.7656805659        6.8625711804        1.8659025686
 H        -7.7580611710        5.8322304945        1.4898694934
 H        -7.1029010244        7.4835173689        1.5504422265
 H        -6.7254884513        7.0078743968       -0.7578762009
 H        -8.2735869565        7.6135912236       -0.7540090800
 H        -6.4732765596        4.4900699515       -2.9216752516
 H        -6.7381322121        5.4941882374       -4.3063198046
 H        -5.4917490893        3.4562307630       -5.4775447562
 H        -7.1470254178        2.6489752654       -5.0394299428
 H        -6.4929406285       -1.8256302995       -4.5434921676
 H        -7.9133835485       -1.2201804980       -5.1044318558
 H        -7.2106189042       -2.1919304111       -2.1824770346
 H        -7.7149998805       -3.2240583666       -3.5768178838
 H        -9.7153347604       -1.2209518484        1.6992337924
 H       -11.3355747667       -0.9370124928        0.8804138705
 H       -10.9440905609        0.8326159614        2.4336960323
 H       -10.5647173221        1.5643192041        0.8208553396
 H        -4.9832033151       -0.2663313326        1.6157380508
 H        -6.0198458535        0.9355305763        0.9879879987
 H        -6.0859462246       -0.6495811142        0.1843168205
 H        -5.9104843780        1.5930404925        3.0745128972
 H        -6.3904617813        0.5913582457        4.3693838549
 H        -7.1451520348        2.0955922968        4.2238856762
 H        -9.2349229527        0.3607098768        4.5839388077
 H        -8.1591767406       -0.9752643627        4.5002045640
 H        -9.3183977695       -0.8542608146        3.3963709339
 H       -11.9499303695       -2.7037447252       -0.4141473668
 H       -11.3003832574       -3.6103757274       -1.6915801758
 H       -11.9942074676       -1.9472580193       -1.9432252247
 H        -9.2554593273       -4.1808769668       -0.8459649112
 H        -9.5394089054       -3.1940059100        0.5567495626
 H        -8.0288777109       -2.8870304594       -0.4789430360
 H        -5.8060519199       -0.5042921222       -5.9493738246
 H        -4.3022839068        0.1543673450       -6.1511956602
 H        -5.8127551746        1.3128035727       -6.1894256150
 H        -4.3806202623       -1.1280175888       -3.7089077644
 H        -5.0287193343       -0.2241367137       -2.3619600810
 H        -3.5106144282        0.2386263720       -2.8452225817
 H       -10.7659015176        5.8804679914       -1.2756878051
 H       -10.0913498758        4.2393285886       -1.0326723447
 H       -10.8974440910        4.8153464557       -2.5405208852
 H        -9.4102535484        7.5826431344       -2.2083737270
 H        -9.7662677094        6.9397525270       -3.9071537921
 H        -8.2182070052        7.3196741829       -3.3142574263
 H        -8.1028183215        9.5170457237        2.6682585258
 H        -9.6456360822       10.1661325700        3.0267108153
 H        -9.2112253127        9.5783392649        1.2970387353
 H        -8.4984810393        7.2951527046        3.9234773854
 H        -9.8504572279        6.3210696262        4.1151892231
 H        -9.9299376315        8.0664941412        4.5725961721
 H       -14.9220025866        8.7501457842        6.6907469671
 H       -13.9230705007        9.3663407390        5.1494677994
 H       -13.6384198179        7.9004387057        5.9395833735
 H       -16.6603407173        6.0563364092        4.7557463350
 H       -16.5210250786        7.2679576610        6.2175594880
 H       -15.2536320388        6.3167623450        5.6882683637
 Na       -8.4194373024        2.3574504779       -1.5040276315
