117

 C       -17.4645089610        9.7609372893        5.1011476485
 C       -16.0267861876        9.5471905617        4.4682075419
 O       -15.5330200450       10.4586218459        3.8732816623
 C       -15.0189207256        8.3754832498        4.5937186461
 C       -14.4739915679        7.8908731128        3.1214343001
 O       -14.2333403926        6.7256268542        3.0990511525
 C       -14.1826307086        8.7733489547        1.9357432276
 C       -12.7297454091        8.4460816337        1.4219981789
 C       -11.7079709313        8.8199066833        2.3680760633
 O       -11.8203819476        9.7688725917        3.1523255186
 C       -10.2997186122        8.2325466687        2.4332050704
 C        -9.8739694750        7.5082566379        1.0744750154
 O       -10.4933960457        7.6226779230        0.0767372954
 C        -8.3573158224        6.8228411256        1.0086313554
 C        -8.0611117184        6.7603091735       -0.4793381279
 C        -8.2343042899        5.3954510828       -1.0733410582
 O        -8.0255077023        4.4568944793       -0.3787600084
 C        -9.0026808896        5.2014641128       -2.4683520314
 C        -8.2949939235        4.0635419267       -3.3244734473
 O        -8.8127334915        2.9984640238       -3.1914709012
 C        -7.0077749736        4.4572524424       -3.9824406597
 C        -6.3015714488        3.3549831853       -4.8686104842
 C        -5.7750398580        2.1524222647       -3.7993399613
 O        -5.6094161909        2.4882994908       -2.6654981579
 C        -5.8973505102        0.6438030318       -4.1825930024
 C        -7.3262133849        0.0633318556       -3.7667735056
 O        -8.3382221365        0.6858663832       -3.4569578241
 C        -7.3582615944       -1.4392748074       -4.0358502608
 C        -7.8736325236       -2.2218682542       -2.7354599510
 C        -9.3972011841       -2.2397683872       -2.5897739673
 O       -10.1844551378       -2.1474656174       -3.5077108995
 C        -9.8928287225       -2.3687759038       -1.0170426419
 C        -9.6404630566       -1.0259739221       -0.2959993187
 O        -8.7212655384       -0.2796034506       -0.6968086890
 C       -10.5568774350       -0.4541142024        0.8738165850
 C       -10.0779610054        0.8870955933        1.5583908824
 C        -8.5916491155        1.0249731176        1.8048956418
 O        -7.9491736283        1.7268796457        1.0439783867
 C        -7.9494982876        0.4029901975        3.0161567656
 C        -6.7964094984       -0.5074294018        2.5172898255
 O        -7.0131897184       -1.6929558130        2.5022617404
 C        -5.3484099716        0.0108155937        2.2175669082
 C        -7.3036744566        1.5065665063        3.8115477621
 C        -8.8423245989       -0.4867183182        3.9810728434
 C       -11.4637923040       -2.8520283992       -0.7993787018
 C        -8.9714436666       -3.4595082955       -0.2702543851
 C        -5.5753415184        0.2950995552       -5.6288380583
 C        -4.8928391695       -0.1171620128       -3.3566155620
 C       -10.4697279255        5.0054416541       -2.0965856668
 C        -8.8075939907        6.6032798902       -3.3306079357
 C        -9.4098330239        9.3578695961        2.6871423566
 C       -10.3093633032        7.1951637699        3.5962611536
 C       -13.8506595616        9.0037050007        5.2953781159
 C       -15.5023253924        7.0937737468        5.2005332125
 H       -18.0564536034        8.7763682277        5.0079787268
 H       -18.2940383714       10.3470384397        4.5827022147
 H       -17.2800358769        9.9342233138        6.1621436983
 H       -14.2476205546        9.7427338305        2.1390289905
 H       -14.9393134287        8.6907661816        1.0070808894
 H       -12.5854824253        8.8231892283        0.3689081313
 H       -12.6442805632        7.3934798153        1.2420879279
 H        -8.3425868848        5.7999002077        1.4251806212
 H        -7.5665326682        7.2449856159        1.4582644734
 H        -7.1390619537        7.1178145609       -0.7953110749
 H        -9.0100089241        7.2997539348       -0.9476789676
 H        -6.4373943917        4.9828288158       -3.1911807439
 H        -7.1598823649        5.2097900579       -4.7305184051
 H        -5.4275982302        4.0545000775       -5.1265543089
 H        -7.0839959240        3.0027109434       -5.6341687381
 H        -6.3593122306       -1.7816167246       -4.4303473294
 H        -8.0267757005       -1.7607698291       -4.8223283612
 H        -7.4665751970       -1.9702410499       -1.7833861119
 H        -7.8085373103       -3.2854209103       -2.9377589134
 H       -10.3880674186       -1.1262466370        1.7322508139
 H       -11.5875790122       -0.3186779992        0.4874142000
 H       -10.5856753979        0.8856505260        2.4584854664
 H       -10.5091259428        1.8006562775        1.0262632245
 H        -5.2253072500        1.0678883667        1.9768021245
 H        -4.9986966626       -0.5378075907        1.3174683461
 H        -4.7769732163       -0.2659834672        3.0827797760
 H        -6.7622715499        2.1581760406        3.2189760154
 H        -6.6580989515        1.0531263302        4.6165576979
 H        -8.1149283147        2.0438317849        4.3708038371
 H        -9.4460313054        0.1695790597        4.5100593846
 H        -8.2191459552       -1.0164592631        4.7010908483
 H        -9.5282753288       -1.1937104016        3.5871561104
 H       -11.8177709249       -3.0675229479        0.2378556423
 H       -11.7500517570       -3.7621380387       -1.4384547400
 H       -12.1356620510       -2.1002934700       -1.2136417541
 H        -8.3607630039       -3.0233072602        0.4953739443
 H        -8.2994092766       -4.0177095001       -0.9787373258
 H        -9.5466402334       -4.1194416920        0.4060987280
 H        -5.8157198172       -0.8072807846       -5.7775850071
 H        -4.5780443092        0.6401424627       -5.7120927175
 H        -6.2364319678        0.8260470385       -6.3156719586
 H        -4.2991989442       -0.9653861631       -3.8205613258
 H        -5.1772722007       -0.4341345942       -2.2977630905
 H        -4.0496260489        0.5620510076       -3.1392557046
 H       -10.8267806023        5.8009347160       -1.4590687176
 H       -10.3985959514        4.0580335711       -1.7335180906
 H       -11.1517215197        4.9531509913       -2.9270394758
 H        -9.6628359381        7.2801929930       -3.1900865097
 H        -8.8865283607        6.4079714347       -4.3156705733
 H        -7.8734650149        7.0410706713       -3.0583357142
 H        -8.4087081329        8.8461600937        2.4765659746
 H        -9.5018265237        9.7108232187        3.6882214727
 H        -9.5213212013       10.2425698705        1.9998750231
 H        -9.2942252397        6.7530006147        3.7910932849
 H       -10.9124341020        6.3948813020        3.2321425409
 H       -10.5707767625        7.4123029350        4.6196733040
 H       -14.1724949196        9.7199229255        6.0938497406
 H       -13.1449154750        9.5831150962        4.6598060544
 H       -13.2835024897        8.1018799561        5.6661109997
 H       -16.1781263452        6.6566465430        4.5317555282
 H       -15.8040267418        7.4144683556        6.1227402164
 H       -14.5698942319        6.5262362004        5.2637586745
 Na       -8.2105583469        2.0887647282       -1.2991466372
