117

 C       -17.2961338258        9.7167737036        5.1596912794
 C       -15.9678083631        9.6543634331        4.4760056406
 O       -15.6619040755       10.6903109602        3.8886389841
 C       -14.9040030237        8.4462602419        4.6081145515
 C       -14.3976475249        7.9397030062        3.0963230209
 O       -14.0880027141        6.7492560145        3.0101225957
 C       -14.2641123310        8.6879446355        1.7930452532
 C       -12.8069974607        8.5374364364        1.2163847211
 C       -11.7190343131        8.9468448807        2.2647707979
 O       -11.8435690388        9.9358386721        2.9079610657
 C       -10.1734929665        8.1456690894        2.4009632070
 C        -9.8514365728        7.6328455073        1.0439239527
 O       -10.4998783984        7.9188194017        0.0560156743
 C        -8.6463246488        6.9235858953        1.0112742284
 C        -8.0088936790        6.8769748210       -0.3858518861
 C        -8.3350612194        5.4357397465       -0.9925180501
 O        -8.0613457096        4.4146760704       -0.4272654393
 C        -8.9951243516        5.3027230675       -2.4546882482
 C        -8.3634052289        4.2120730760       -3.2506733739
 O        -8.8837689893        3.1409093355       -3.3298399893
 C        -6.9598554966        4.4618553138       -4.2316178870
 C        -6.3504454627        3.1418431588       -4.8470559143
 C        -6.0675656890        2.1411732645       -3.7481157678
 O        -5.9793568066        2.4966356242       -2.5718649591
 C        -5.9468595004        0.5770544691       -4.1337773853
 C        -7.3252910206       -0.1358455365       -3.7190228781
 O        -8.2637793790        0.5286694990       -3.3041544544
 C        -7.5646063097       -1.5881944099       -4.0367103183
 C        -7.9055575577       -2.4149575618       -2.7193130453
 C        -9.4345332025       -2.3660462496       -2.4547500651
 O       -10.2030863791       -2.2828808663       -3.3968363733
 C        -9.8613182952       -2.3579739529       -0.9866334041
 C        -9.6121810116       -1.0398150947       -0.2687338849
 O        -8.6274168204       -0.3980708247       -0.5884685472
 C       -10.5073272095       -0.5871825990        0.9429365695
 C       -10.0595248594        0.8679188050        1.4361279636
 C        -8.5237677641        1.0144278633        1.8236241321
 O        -7.8154311672        1.7278179792        1.1302204509
 C        -7.9722841249        0.3951151448        3.1080304321
 C        -6.6613827002       -0.6402096281        2.6255492845
 O        -6.8528866946       -1.7923684725        2.5183925949
 C        -5.3492801587        0.0283749681        2.4482063489
 C        -7.3974114463        1.5784527634        3.9630381362
 C        -8.8976588383       -0.4634229146        3.9818052973
 C       -11.2943907653       -2.8537257511       -0.9652527728
 C        -8.9903920979       -3.4990001876       -0.2226747087
 C        -5.7457058389        0.1628555824       -5.6934235709
 C        -4.7093160383       -0.0785392987       -3.2730458096
 C       -10.5579747792        5.1322723493       -2.2578646614
 C        -8.8790438106        6.6614459391       -3.4456066863
 C        -9.0688639759        9.3058196362        2.8197185310
 C       -10.3319402548        7.0736153409        3.4564241861
 C       -13.6749599660        9.1590865691        5.3328638327
 C       -15.6339826617        7.1391662127        5.2723919123
 H       -17.9066382784        8.8919084329        4.7724500871
 H       -17.9545487514       10.4911680160        4.8828411162
 H       -17.1953786931        9.6163683501        6.2562911245
 H       -14.4510767023        9.8169366410        1.7599667110
 H       -15.0275405231        8.3388738556        1.0976890520
 H       -12.7545280775        8.9680475917        0.1937601602
 H       -12.6066298215        7.5436294354        1.0011303702
 H        -8.7958335048        6.0238175455        1.5166188239
 H        -7.8805897458        7.3758415831        1.6602699296
 H        -6.8571800829        6.8981240856       -0.3850187847
 H        -8.5604613498        7.6623453588       -0.9469519955
 H        -6.2970762124        5.0127028472       -3.5174686764
 H        -7.0266508777        5.0746570151       -5.0763902760
 H        -5.3076088957        3.5122196112       -5.1457947776
 H        -7.0975387668        2.6833445681       -5.5668697803
 H        -6.6229936536       -2.0185163362       -4.4599196109
 H        -8.3163358660       -1.8071006425       -4.7956969470
 H        -7.4386264695       -2.0047316947       -1.7993301356
 H        -7.6225738998       -3.4571816323       -2.8899971128
 H       -10.3589707000       -1.2893370910        1.7455553140
 H       -11.5108751713       -0.5113940914        0.4942051361
 H       -10.7841198178        1.2670247369        2.2159601436
 H       -10.2867603808        1.5169622555        0.5934573785
 H        -5.3775479964        0.8957957637        1.8062214937
 H        -4.5931171760       -0.6472074425        2.0847307891
 H        -5.1549706888        0.3823539524        3.4926629424
 H        -6.5176209575        1.9422814835        3.4539475521
 H        -7.1886813358        1.3378945476        4.9780084888
 H        -8.0982344421        2.4140188427        3.9360023107
 H        -9.6229380944        0.0519250364        4.5834979338
 H        -8.3825202674       -1.1614493631        4.5550149676
 H        -9.5209627875       -1.0099109218        3.3086147946
 H       -11.8397170198       -2.9455707072       -0.0688080750
 H       -11.3982921074       -3.7819839734       -1.5482801593
 H       -11.8091371887       -2.1942571380       -1.6437799343
 H        -8.0024276840       -2.9870198497       -0.0238022917
 H        -8.7826200745       -4.3673891186       -0.8282500815
 H        -9.2118301664       -3.6654033048        0.8082336814
 H        -6.2837912261       -0.7254044910       -5.6375835598
 H        -4.7145486662        0.1200373729       -5.9470789516
 H        -6.3418855930        0.6600294630       -6.4070757396
 H        -3.8388387726       -0.4957764772       -3.8129861783
 H        -5.0709408326       -0.8616874152       -2.6725789761
 H        -4.2044846865        0.5848849499       -2.5610569822
 H       -10.9597631036        5.8180015781       -1.5671358002
 H       -10.5460735257        4.0605251610       -2.0512123221
 H       -11.1285555075        5.1597694806       -3.1965121563
 H        -9.3956347379        7.4650385589       -3.1201210310
 H        -9.5457729498        6.4049899506       -4.2429238551
 H        -7.8679837456        6.8719176617       -3.7299969533
 H        -8.0662948768        9.0050849128        2.8036715139
 H        -9.4098005299        9.7827283631        3.7930331201
 H        -9.2453756914       10.1147483640        2.0924390139
 H        -9.4306426033        6.7168903838        3.9362353513
 H       -10.9970990356        6.3232517682        3.1950838791
 H       -10.7463075734        7.5431686111        4.3908311342
 H       -14.1362720912        9.7037556870        6.1931962905
 H       -13.1397746510        9.9671468966        4.8149479604
 H       -12.9827956508        8.3642494336        5.6589955056
 H       -16.2643144817        6.7050537566        4.5384539987
 H       -16.0845765712        7.5314822688        6.1538106090
 H       -14.7413262576        6.5349216122        5.4365137274
 Na       -8.1115765658        1.9663607571       -1.3753261228
