117

 C       -17.1808663182        9.5056376684        5.2458083690
 C       -15.9021087417        9.8169184661        4.3668707949
 O       -15.6474540263       10.8617493999        3.7897547901
 C       -14.8961082337        8.5620763593        4.4741560568
 C       -14.3374851344        7.9209550400        3.1164438523
 O       -13.9671805972        6.7267371302        3.0888224457
 C       -14.2139580215        8.7925333990        1.8828732010
 C       -12.8291212186        8.5800067701        1.2676412050
 C       -11.6906493477        9.1647643210        2.2127225689
 O       -11.9576956947       10.2029844772        2.7644851458
 C       -10.4206897204        8.3621884697        2.3920945330
 C        -9.8331587212        7.8539282968        0.9925339895
 O       -10.4676839259        8.1424831010       -0.0285148375
 C        -8.5801916439        6.8242428101        0.9614628608
 C        -7.8337802177        6.7258228426       -0.4580400359
 C        -8.3170731631        5.4806541398       -1.2337597674
 O        -8.1806407485        4.4029541490       -0.6112372405
 C        -8.9345022754        5.4373378581       -2.6176880293
 C        -8.3140973492        4.2881209217       -3.4265605293
 O        -8.9190220955        3.2232417889       -3.4901447920
 C        -7.0852845327        4.3957782482       -4.2763099625
 C        -6.5608930179        3.0399798871       -4.7946199361
 C        -6.3103995777        2.0119321950       -3.7363720243
 O        -6.2929105908        2.2845347846       -2.5387344727
 C        -6.0486634563        0.4056385082       -4.0597129198
 C        -7.3209662930       -0.3020248345       -3.6835506567
 O        -8.1477818633        0.3187737628       -3.0894981705
 C        -7.5801887636       -1.7982159011       -4.0328107373
 C        -7.8333871811       -2.5437387034       -2.7603580403
 C        -9.3870394821       -2.3592091918       -2.3828541602
 O       -10.2253790686       -2.4064402813       -3.2284892254
 C        -9.8416222671       -2.4698822361       -0.9616405302
 C        -9.5309605253       -1.0416504555       -0.2687389250
 O        -8.5376092471       -0.4440352447       -0.5315591501
 C       -10.3815922802       -0.6232025565        0.8748614921
 C        -9.9516908628        0.7563480259        1.3169391155
 C        -8.4887761434        0.9307877435        1.7806373100
 O        -7.7335785126        1.6817511347        1.1612125291
 C        -7.8935698218        0.2965048651        3.1192920805
 C        -6.6472359861       -0.6257156201        2.8804861216
 O        -6.8003239627       -1.7966525091        2.5219442793
 C        -5.3040941952        0.0441086176        2.6576207180
 C        -7.4936370358        1.6181296742        4.1075020444
 C        -8.9518333147       -0.4184310504        3.9411765036
 C       -11.3392024686       -2.9101147129       -1.0072207800
 C        -9.0369418895       -3.5211799929       -0.1127239257
 C        -5.7965229733        0.3132364131       -5.6009930192
 C        -4.7795356836        0.0072010168       -3.2427873295
 C       -10.4846947570        5.1693907656       -2.3888979873
 C        -8.8994244006        6.8636361273       -3.3657338107
 C        -9.1257479649        9.1789413555        2.9657838809
 C       -10.4279639118        7.1013598070        3.3455270585
 C       -13.7018139683        9.0490651125        5.2833673257
 C       -15.5396112479        7.4519911116        5.3098154768
 H       -17.8612716254        8.8334994887        4.8071586203
 H       -17.7592680279       10.3909589741        5.3310600559
 H       -16.9894634412        9.2258697524        6.2575685844
 H       -14.3028185684        9.9679549879        1.8266246482
 H       -14.9640788546        8.5063823290        1.2530441538
 H       -12.8012153170        9.1234053240        0.3754313291
 H       -12.6774576302        7.5171493622        0.8413748461
 H        -8.9130907102        5.9072893867        1.4213498037
 H        -7.7101894442        7.1171710959        1.6633210210
 H        -6.7445250243        6.3420658525       -0.3145865426
 H        -7.9526673810        7.6261510434       -0.9527263573
 H        -6.4545920422        5.0406820285       -3.6928640739
 H        -7.3124524961        4.9905214528       -5.2054936528
 H        -5.6393267744        3.2038799005       -5.2633973978
 H        -7.4102328580        2.6198053396       -5.2814772067
 H        -6.8114343747       -2.3078442958       -4.5673236588
 H        -8.4883415110       -1.8685206197       -4.6995270961
 H        -7.2325242461       -2.0973895856       -1.9308080853
 H        -7.5539270780       -3.6130894584       -2.9068872287
 H       -10.2308032703       -1.3628730434        1.6501630262
 H       -11.3742867507       -0.5635757790        0.4518482152
 H       -10.7083896410        1.1367431700        2.1143276524
 H       -10.2193565130        1.3748550596        0.4990732365
 H        -5.4309466727        0.5069528017        1.6660315652
 H        -4.4823152045       -0.6358876228        2.5467827751
 H        -5.1219510162        0.8673021223        3.3634596477
 H        -6.5273331822        2.0747614109        3.7589905943
 H        -7.4779585978        1.3599390786        5.1416406765
 H        -8.2001952938        2.3707886379        3.8939192116
 H        -9.8112870734        0.2038516116        4.2705158589
 H        -8.5746635882       -1.0296805014        4.7480344341
 H        -9.4748908013       -1.0686129547        3.2346065939
 H       -11.8290081560       -2.7560956545       -0.0708975997
 H       -11.5802514215       -3.8153496126       -1.3940294321
 H       -11.7680061795       -2.2242598134       -1.7297683911
 H        -7.9756414088       -3.4074256100       -0.3926871343
 H        -9.2832137107       -4.5468456846       -0.2943598323
 H        -8.8693263560       -3.2686164459        0.9176912402
 H        -6.3007477044       -0.5480191397       -5.9330701843
 H        -4.7994921376        0.5052311439       -5.9802915777
 H        -6.5599416536        0.9436112087       -6.0354671120
 H        -3.8762203209        0.2633457657       -3.6715378106
 H        -4.7875409596       -1.0468190456       -3.1780304857
 H        -4.6865970967        0.4113798426       -2.2585173360
 H       -10.9161413680        5.9426939373       -1.7227145525
 H       -10.5116592338        4.0764125943       -2.0822230549
 H       -11.0182785965        5.1098485846       -3.3472356118
 H        -9.1583087590        7.7383946490       -2.7893911632
 H        -9.7972001944        6.8657769960       -4.0608451860
 H        -7.9467212689        6.9361436336       -3.8280282971
 H        -8.3786065237        8.4371617416        3.1771390696
 H        -9.4055538822        9.7965655606        3.8178605323
 H        -8.8198803517        9.8667040165        2.2277064939
 H        -9.4137621670        6.9026861783        3.5450299737
 H       -11.1302222274        6.2405430597        3.0596785069
 H       -10.6980944712        7.2969225783        4.3627501034
 H       -14.1007822409        9.2993965085        6.2546084918
 H       -13.3284816976       10.0440384471        5.0029063322
 H       -12.9591266510        8.2711809915        5.3245368750
 H       -16.3549300199        6.9826728225        4.7137001213
 H       -15.8451966286        7.9399860058        6.2865147410
 H       -14.6819950005        6.8420881463        5.3981487968
 Na       -8.0064696861        1.9026228325       -1.3053590021
