117

 C       -17.2206905136        9.9335270474        5.0598056341
 C       -15.8316240016        9.7071375216        4.4153195707
 O       -15.5456683630       10.6279039180        3.6564070368
 C       -14.7562134347        8.6931977537        4.6603865127
 C       -14.2811590544        8.1158372250        3.2052857944
 O       -13.9232339334        6.9378206676        3.0979231442
 C       -14.1740145269        9.1412566551        1.9399111425
 C       -12.8627376450        8.9888621822        1.0880387740
 C       -11.5656685810        9.4911117699        1.8520255724
 O       -11.6235029167       10.5651281753        2.3179909630
 C       -10.3258230953        8.4242954690        2.0635043615
 C        -9.6275642012        7.9649808659        0.7712047042
 O        -9.7597782699        8.6689486573       -0.2504494404
 C        -8.7246490836        6.7663238026        0.8835324452
 C        -7.9250879979        6.6747822253       -0.4443731848
 C        -8.4930167319        5.3481349980       -1.2973411191
 O        -8.2796031616        4.1941926733       -0.8640476301
 C        -9.1142293406        5.6850552843       -2.7435649051
 C        -8.6613957237        4.3540970275       -3.4862756127
 O        -9.3450851729        3.3565805532       -3.6413815799
 C        -7.2417838180        4.3635407898       -4.3081609075
 C        -6.8987029627        3.0640689053       -4.9643844586
 C        -6.6075891641        1.9643282449       -3.8761481727
 O        -6.4965507282        2.3543960829       -2.7122028530
 C        -6.1833450471        0.4463645017       -4.1264632456
 C        -7.3852202558       -0.6256094649       -3.5784403073
 O        -8.2819331514       -0.0650123347       -3.0304874251
 C        -7.3763084055       -2.0987214045       -3.8715473914
 C        -7.8415660341       -3.0654473823       -2.6903665721
 C        -9.2713724918       -2.7649804871       -2.2964049414
 O       -10.1358145624       -2.6335153226       -3.0960857266
 C        -9.7725559000       -2.7050600838       -0.6785095232
 C        -9.1916175951       -1.2258643772       -0.1937244589
 O        -8.0603142000       -0.8764769427       -0.3924684052
 C       -10.1347368463       -0.5347924043        0.7948644286
 C        -9.6889864877        0.8211588193        1.2374724773
 C        -8.3568988594        0.7923999365        1.8693057432
 O        -7.4847044062        1.3290056016        1.1946211035
 C        -7.9484888854        0.3854944578        3.4142950634
 C        -6.6536206869       -0.5203476646        3.0685541203
 O        -6.8428527647       -1.7134789687        2.8365279406
 C        -5.3043018372        0.1264557699        3.1314764890
 C        -7.6954935939        1.6705658295        4.2557705364
 C        -9.1086396603       -0.5982843800        4.0135840055
 C       -11.2360981372       -2.8390511974       -0.6936583850
 C        -9.0639000127       -3.8504534202       -0.0187972940
 C        -6.0363013659        0.1342983916       -5.6365842236
 C        -5.0697690370       -0.1104984763       -3.1640328314
 C       -10.7062678612        5.6680542317       -2.7226680696
 C        -8.5683648021        6.9450023406       -3.4612724559
 C        -9.2637579835        9.0891900916        3.0016976911
 C       -10.8527213044        7.1883358279        2.8493980193
 C       -13.5536085335        9.3433694685        5.2679998215
 C       -15.2153234330        7.5277079749        5.6061024337
 H       -17.8542050988        9.0195242234        5.1497138558
 H       -17.6719458717       10.8235089407        4.5618176584
 H       -17.1858102084       10.2338378836        6.2021378720
 H       -14.0397281737       10.2803755155        2.4009146881
 H       -14.9918849782        9.2227463048        1.2999578367
 H       -12.7916740348        9.6694573144        0.2201784600
 H       -12.9762249932        8.0137590806        0.6584693907
 H        -9.1943191345        5.8785497248        1.0977384060
 H        -8.1046812059        6.8825634565        1.7783928825
 H        -6.7483800151        6.4827540708       -0.3281016765
 H        -8.2793978873        7.4736656799       -1.0487932448
 H        -6.4131381731        4.6595283090       -3.6223516150
 H        -7.4254493577        5.1806573401       -4.9446035116
 H        -5.9334156201        3.2040369599       -5.5747265907
 H        -7.9427452127        2.6576662567       -5.3095006325
 H        -6.2929149503       -2.3431295773       -3.9920894389
 H        -7.8430157942       -2.1872632370       -4.8611343392
 H        -7.1659779239       -3.0183049625       -1.8386088893
 H        -7.8535884538       -4.0886397245       -2.9925308668
 H       -10.3144032440       -1.2571467129        1.6172317295
 H       -10.9984129157       -0.3811633266        0.1140133658
 H       -10.4785024691        1.3105332657        1.9182637843
 H        -9.8120402787        1.3866345118        0.3669217084
 H        -5.0277354647        0.6537268345        2.2316104590
 H        -4.5297706843       -0.5878335408        3.2766315285
 H        -5.3996130926        0.8694844638        3.9572768319
 H        -7.6098282812        2.5224031013        3.5044502180
 H        -6.8049035154        1.4844329011        4.7993826528
 H        -8.5147964711        1.9459123664        4.9164661399
 H       -10.1217478741       -0.2774064493        3.7355670412
 H        -9.0389703245       -0.5519974990        5.0453496185
 H        -9.0631469787       -1.6447859538        3.7266977570
 H       -11.5375675133       -3.0690884899        0.3679227178
 H       -11.4195319428       -3.7581217703       -1.2606981592
 H       -11.9495915872       -2.0523967908       -1.1271144872
 H        -8.0171072664       -4.1129833532       -0.3917328983
 H        -9.6432890445       -4.7537472767       -0.0906170639
 H        -8.8415681340       -3.7138721589        1.0445279505
 H        -5.2931919625       -0.6407298896       -5.8280671016
 H        -5.5545726639        1.0669065500       -6.0391730500
 H        -6.9212020688       -0.2260854323       -6.1880351755
 H        -5.1416005183        0.3246026615       -2.1249595799
 H        -4.0883541917        0.1499009826       -3.6125668705
 H        -5.0782565343       -1.2139318836       -2.7679649292
 H       -10.8515503713        6.5581388665       -2.2197233889
 H       -11.2252702680        4.8402016817       -2.2157826150
 H       -11.0280338377        5.7795806456       -3.7282431986
 H        -9.3210722299        7.6189688739       -3.2913695343
 H        -8.7357160855        6.7339254064       -4.5707589173
 H        -7.6029081142        7.3220298465       -3.2076103086
 H        -8.5467962062        8.3704202038        3.2851263237
 H        -9.8844412922        9.4908279955        3.8991795008
 H        -9.0201536962       10.0183656184        2.4837542291
 H       -10.0143643064        6.6126248636        3.1056248508
 H       -11.8169950389        6.7499799680        2.5232277457
 H       -11.0710906273        7.5925552565        3.8563259112
 H       -13.8265701355       10.0077488226        6.1206743502
 H       -13.2302916058       10.1285503327        4.5691545898
 H       -12.8848321444        8.5527074678        5.5965284645
 H       -16.2506057101        7.6043305183        5.5982759487
 H       -14.8415696889        7.6954897094        6.5991478014
 H       -14.8006374850        6.7450586051        5.0576148497
 Na       -8.2463747461        1.7985778122       -0.9653024227
