117

 C       -17.1413427911        9.7756106875        5.1398944418
 C       -15.7861473366        9.9166975634        4.2461314762
 O       -15.6100369575       10.9063242292        3.6297012097
 C       -14.7017958180        8.7803444406        4.5371010977
 C       -14.1663418209        8.1693930613        3.2142009365
 O       -14.0274719241        6.9754435218        3.0177199364
 C       -14.0034066613        9.1615440965        2.0134426613
 C       -12.9154033213        9.0533927964        0.9405515570
 C       -11.6351228606        9.5418007786        1.7654416059
 O       -11.4810244422       10.7250426190        2.0684997736
 C       -10.4452775462        8.4713649099        2.1069771232
 C        -9.6680800496        8.1094476674        0.7765272239
 O        -9.5377469481        8.8071820950       -0.2160424536
 C        -8.7896884935        6.7554294507        0.8040487330
 C        -7.9582762992        6.6256536058       -0.4993306435
 C        -8.5160901791        5.4021221102       -1.3993317231
 O        -8.4123072259        4.3120118017       -0.7765608325
 C        -9.1639075833        5.6385251999       -2.7729925576
 C        -8.8540027279        4.2876883190       -3.6542941980
 O        -9.5408075438        3.2893483155       -3.6356329697
 C        -7.4398759211        4.2835268305       -4.3248590316
 C        -6.9592749347        2.9891992870       -4.9354389746
 C        -6.5870269845        1.9221468101       -3.8673594560
 O        -6.6203081862        2.2895591574       -2.6979649556
 C        -6.2041870139        0.3876312777       -4.0692715191
 C        -7.5021734829       -0.4911440321       -3.5153358800
 O        -8.5091865031       -0.1133296039       -3.0018118327
 C        -7.3447091265       -2.1164439637       -3.7556627978
 C        -7.8059944945       -2.9766724985       -2.6117566338
 C        -9.2582270114       -2.7175236380       -2.2755942122
 O       -10.2261270923       -2.7474583483       -3.0116750879
 C        -9.6111407842       -2.7709460981       -0.6768965551
 C        -9.0501771351       -1.4048497937       -0.0196638792
 O        -7.9693176616       -0.9586062620       -0.3134429017
 C       -10.2175922589       -0.5955596035        0.7215598084
 C        -9.6895677435        0.7564351603        1.3493941469
 C        -8.2827872873        0.8591723584        1.9024687872
 O        -7.3029425343        1.3032854948        1.2978407280
 C        -8.0325025197        0.3436266037        3.3317360148
 C        -6.7164579629       -0.5110413042        3.2637047777
 O        -6.7435784412       -1.7006922852        2.9466022276
 C        -5.2855900080        0.1780203321        3.3032646482
 C        -7.8202286955        1.5280610715        4.2073585363
 C        -9.1753537189       -0.4601141961        4.0377676354
 C       -11.1493958549       -2.8682125649       -0.7193766848
 C        -8.9302550051       -3.9330091775       -0.0344501711
 C        -6.1537706263       -0.1431094833       -5.5757083388
 C        -5.0077979943        0.0243845278       -3.2095483819
 C       -10.6229986953        5.8815211370       -2.7922336035
 C        -8.4298499342        6.8019498391       -3.4170449869
 C        -9.1578328470        9.0148380651        2.8285495965
 C       -10.8658510994        7.0835574026        2.8199486637
 C       -13.5631100262        9.5259994736        5.3839202892
 C       -15.0994521186        7.5973005164        5.6349843555
 H       -17.3302501830        8.7547820059        5.2647366200
 H       -17.9796608869       10.4519223414        4.9148705294
 H       -16.9639124092        9.9894847107        6.1548701932
 H       -13.9262208848       10.1721528471        2.3056847422
 H       -14.9025279404        9.1480205612        1.4193745939
 H       -13.1229419257        9.7593542018        0.2254686304
 H       -13.0198955731        8.0187833931        0.4359376780
 H        -9.2642801223        5.8366274361        1.0666073676
 H        -8.0368761413        6.7846203888        1.6225817375
 H        -6.9683700190        6.2091190791       -0.1558048699
 H        -8.0237412422        7.5346458421       -1.0860578459
 H        -6.8413680717        4.4903599554       -3.4681176678
 H        -7.3968303060        5.2211795652       -4.9459688668
 H        -6.0156304415        3.2719692563       -5.4383623919
 H        -7.8658910339        2.5367377681       -5.4033672569
 H        -6.3966096206       -2.4409366093       -4.1235857848
 H        -8.1344298838       -2.2340047027       -4.5650960030
 H        -7.2730940382       -2.9291546588       -1.6544135725
 H        -7.7442190959       -4.0549414122       -2.8703618280
 H       -10.4010060586       -1.2108529971        1.5984174212
 H       -11.0662928566       -0.4822243274        0.0532511210
 H       -10.4859246130        0.9146688731        2.1876899087
 H        -9.9380265125        1.5419678729        0.6500602915
 H        -5.2474286922        0.8012848011        2.3993452495
 H        -4.5489652552       -0.6015111619        3.0914948538
 H        -5.0567504759        0.7840804101        4.1622635323
 H        -7.6625469352        2.4416259662        3.6286242594
 H        -7.0763516187        1.2527843440        4.9335683958
 H        -8.7334824895        1.6883085718        4.6642632704
 H       -10.0485449427        0.1350603258        4.1354591880
 H        -8.7327881992       -0.4548964323        5.0198253012
 H        -9.4857729677       -1.4245706656        3.8253811460
 H       -11.5056110039       -2.8600148032        0.3392838435
 H       -11.4506439302       -3.7854140618       -1.1910163104
 H       -11.6534708767       -2.0329959499       -1.2122148595
 H        -7.8588905848       -4.0509867825        0.0637502441
 H        -9.3341623628       -4.8881289859       -0.4408185463
 H        -9.3068054847       -3.9668025377        1.0270932829
 H        -5.7257677379       -1.0961917653       -5.8231581235
 H        -5.5619979398        0.5622219214       -6.1147311063
 H        -7.1720732884       -0.0755193099       -5.9834654910
 H        -5.3618277551       -0.0743092684       -2.2182094643
 H        -4.4763678118        0.9962945385       -3.2522572142
 H        -4.3405220776       -0.8517066326       -3.1525102858
 H       -10.7739694173        6.6558342692       -1.9917979513
 H       -11.2323785205        5.0107853560       -2.5221522357
 H       -10.7852663234        6.2496022586       -3.7635266902
 H        -8.9906394049        7.6959975669       -3.0764459402
 H        -8.5102061370        6.6895514318       -4.4948100001
 H        -7.4200519715        6.8989122359       -3.1693470526
 H        -8.3815988973        8.2209650184        2.6865554424
 H        -9.3847963124        9.0504354003        3.8611367623
 H        -9.0076368006        9.9925786537        2.4568088064
 H        -9.9057741907        6.7396522701        3.1869576732
 H       -11.4242910002        6.4166819565        2.0573620579
 H       -11.5697383153        7.1707576871        3.6351986381
 H       -14.1109910798       10.0935522086        6.1567357314
 H       -13.1373599975       10.4141650565        4.8562701658
 H       -12.9604182432        8.7696037368        5.9164576130
 H       -16.1658353013        7.4697638819        5.7219048416
 H       -14.7446985389        7.9984580316        6.5860977769
 H       -14.5048432937        6.8685101721        5.2141751403
 Na       -8.1673283609        1.6378492157       -1.1846135893
