117

 C       -17.0486878564        9.6869186432        5.1179906384
 C       -15.7845522956        9.9946800415        4.3971699869
 O       -15.6928823275       10.9735504512        3.6828488565
 C       -14.6164861462        8.9333748311        4.5863668514
 C       -14.1261304954        8.2796832688        3.1762052952
 O       -14.0865605290        7.0801979320        3.0184289192
 C       -14.0187651517        9.2926837248        2.0851339477
 C       -12.7555126402        9.0316301149        1.1552399731
 C       -11.4642241912        9.4678550793        1.6257025827
 O       -11.2620035341       10.6718893340        1.8431540523
 C       -10.3212900817        8.4004569756        1.9842466991
 C        -9.6308120869        8.1101392669        0.6434211700
 O        -9.4826573765        9.0201940963       -0.1317693801
 C        -8.8372494309        6.7300317179        0.6334548676
 C        -8.0310083130        6.5089922455       -0.5798392045
 C        -8.5672027091        5.3233374757       -1.3268075506
 O        -8.6198198353        4.2234872014       -0.8522239517
 C        -9.1191253161        5.6039978999       -2.8697787194
 C        -8.8426126503        4.1244621296       -3.6569647381
 O        -9.7428619325        3.3387265040       -3.5941199910
 C        -7.4542013534        4.0892876313       -4.3933745898
 C        -7.0225141264        2.6807362338       -4.9683359293
 C        -6.7644923004        1.7521439655       -3.7635239677
 O        -6.6808399508        2.2150995033       -2.6550680006
 C        -6.5007379701        0.3792013249       -3.9649349478
 C        -7.5997716860       -0.5310389636       -3.4758693197
 O        -8.5544241206       -0.0468168433       -2.8722581719
 C        -7.3889428600       -2.0349454373       -3.7923680797
 C        -7.7571025761       -2.7961480574       -2.6139199129
 C        -9.2827749455       -2.8740207423       -2.1684057771
 O       -10.0666609746       -2.7889429263       -3.0979404108
 C        -9.6179903658       -2.7980261741       -0.6496435490
 C        -9.1296628241       -1.4463487140       -0.0796671997
 O        -7.9746117560       -1.0150361016       -0.2156395058
 C       -10.1293386285       -0.6471227113        0.7628329471
 C        -9.6744517541        0.7281630977        1.4216931775
 C        -8.2447806880        0.7788802708        1.9115762446
 O        -7.4134366936        1.3244099526        1.2164882907
 C        -7.9790753366        0.3820090154        3.5103437792
 C        -6.6988037116       -0.6139248136        3.2790307903
 O        -6.7135259904       -1.7810650876        3.1226457558
 C        -5.3628609029        0.2287022443        3.4573864567
 C        -7.7956631091        1.7229636697        4.3073609647
 C        -9.1789698795       -0.4793041186        3.9550650624
 C       -11.1378524561       -2.9226233479       -0.4810788102
 C        -8.8436866679       -4.0173316139        0.0772427470
 C        -6.1861717533       -0.1438307270       -5.5008139785
 C        -5.0221863667        0.2288174841       -3.3148686155
 C       -10.6487014362        6.0199648254       -2.7413471784
 C        -8.2555831087        6.7982897024       -3.4967514710
 C        -9.2698044252        9.1968573536        2.8702318297
 C       -10.9964247789        7.2051431470        2.6667153352
 C       -13.4786564926        9.8418544992        5.2888360518
 C       -15.0566943993        7.6630267478        5.4016003739
 H       -17.1052018703        8.6535494030        5.0576249660
 H       -17.8531274261       10.3117846815        4.9863719409
 H       -16.9211089606        9.7380308881        6.1307723447
 H       -14.0579897443       10.2528330926        2.3921368212
 H       -14.8576908015        9.0962670431        1.3521413510
 H       -13.0530809194        9.4559782500        0.1440809017
 H       -12.7195607222        7.9225581248        1.0423336850
 H        -9.6008297147        5.8279625396        0.7114716358
 H        -8.2451032632        6.5100134071        1.5201465348
 H        -7.1146062848        6.2490252248       -0.3186491420
 H        -8.1683808570        7.3787799118       -1.2262999343
 H        -6.7163988394        4.5833370349       -3.7855030966
 H        -7.6705583459        4.8189394577       -5.2322770209
 H        -6.0725098955        2.9164887908       -5.3231113995
 H        -7.7824704701        2.3315653889       -5.5591564734
 H        -6.3224148012       -2.2568601330       -3.8904684786
 H        -7.9615956977       -2.3241009284       -4.6822624955
 H        -7.2156702792       -2.4847640659       -1.7001477592
 H        -7.3255573456       -3.8309607689       -2.7783539101
 H       -10.4328648917       -1.2753017811        1.5893735162
 H       -10.9538781325       -0.4854037684        0.0805143890
 H       -10.5132278083        0.9065246667        2.0236420708
 H        -9.7015209364        1.5001330967        0.5544816582
 H        -5.3912578879        1.1402039638        2.8500768093
 H        -4.4804924996       -0.3600565365        3.1307685173
 H        -5.3121833676        0.4912965350        4.4887262993
 H        -7.1405884036        2.3966509132        3.9007018746
 H        -7.6461475892        1.3996175005        5.3409540665
 H        -8.7940025912        2.1315798540        4.2021425330
 H        -9.9945349404        0.1405570533        4.2113897908
 H        -8.8954675177       -1.0893892745        4.8418869440
 H        -9.4825064692       -1.2109799375        3.2199738068
 H       -11.4101344428       -2.7623503246        0.5191025765
 H       -11.5022682297       -3.9122699570       -0.8399235002
 H       -11.6100853542       -2.1621608431       -0.9935090372
 H        -7.9046981219       -3.8797875130        0.5419586867
 H        -8.6913529286       -4.8293169770       -0.6743116670
 H        -9.5226486286       -4.5180732275        0.8273116862
 H        -5.8915470975       -1.2120530917       -5.6554845892
 H        -5.3336228545        0.3329083396       -5.9342359845
 H        -7.0320159146        0.1118492401       -6.1501704054
 H        -4.9300652568       -0.5179716084       -2.5629598859
 H        -4.7085565244        1.1860159362       -2.9724904003
 H        -4.3303592586       -0.1949882769       -3.9582632537
 H       -10.7719115011        6.5355448885       -1.7374377914
 H       -11.1900499260        5.0921351920       -2.5894568591
 H       -10.9268804182        6.5736920334       -3.6932877169
 H        -8.3534006186        7.5660359723       -2.6880066728
 H        -8.5088595599        7.1449357587       -4.4517129002
 H        -7.1137937251        6.5704244524       -3.6206667925
 H        -8.3161711532        8.6576894845        2.7611871043
 H        -9.5984911351        9.0709457417        3.8440452823
 H        -9.3466999236       10.2129806518        2.5240003816
 H       -10.2170036684        6.7257973584        3.4069512101
 H       -11.3373336937        6.5147660858        1.9150123622
 H       -11.9369889458        7.5409015627        3.1459719069
 H       -13.8181895939       10.3833476641        6.1746182114
 H       -13.3182182005       10.6503351848        4.6085081575
 H       -12.6507637454        9.1985002074        5.6419209728
 H       -15.9379312326        7.3142767307        4.8517288474
 H       -15.3962638670        8.0989008437        6.3099619836
 H       -14.1094852784        7.0374704150        5.3295657453
 Na       -8.0405599144        1.4963959462       -1.3383985300
