117

 C       -17.1651598662        9.6661426646        5.1418640710
 C       -15.8392116848        9.9062665699        4.4495669723
 O       -15.6984640834       10.9626700452        3.7804466218
 C       -14.5750010693        9.0422819739        4.6117607500
 C       -14.2072102921        8.5721773769        3.1213591375
 O       -14.1019583426        7.3505841142        3.0590164664
 C       -14.0080955785        9.4539310791        1.9570993680
 C       -12.7289502250        8.8730881499        1.1110616224
 C       -11.3933051644        9.5563671403        1.6554126704
 O       -11.0863972190       10.6871219953        1.6012581026
 C       -10.2713622016        8.4760187858        2.0186319174
 C        -9.4822640342        8.2097178955        0.6868782608
 O        -9.3534551869        8.9820527424       -0.2593590397
 C        -8.9583118278        6.7681208418        0.5923362839
 C        -8.0538892704        6.4146721161       -0.6170347006
 C        -8.5341360396        5.1841512535       -1.3991863338
 O        -8.8218192965        4.0845292776       -1.0410277564
 C        -8.9757186655        5.5085071602       -2.8903100072
 C        -8.9226695581        4.2742263945       -3.7216599846
 O        -9.7166363457        3.3648935677       -3.5830810471
 C        -7.6629580691        4.0799921799       -4.5769112743
 C        -7.2902927210        2.5723508840       -4.9950853035
 C        -6.8157182986        1.7507240605       -3.7500796433
 O        -6.7098729181        2.3440899402       -2.6774213134
 C        -6.4771903789        0.3647365180       -4.0181847742
 C        -7.5643194544       -0.6435701401       -3.4291654953
 O        -8.5240672131       -0.1537950240       -2.8196738161
 C        -7.5322835221       -2.0985405827       -3.6768005494
 C        -7.6184700804       -2.8923949070       -2.4162988852
 C        -9.2664573235       -2.8249502942       -2.1235342600
 O        -9.9958750411       -2.8686390872       -3.0558454483
 C        -9.6639348504       -2.8127729619       -0.6455776473
 C        -9.1723635603       -1.4559720801       -0.0644383623
 O        -8.0054633891       -1.0723647438       -0.2202992530
 C       -10.1578746484       -0.6947954558        0.8452832216
 C        -9.7514217965        0.7184832386        1.3779890176
 C        -8.3233708668        0.8027537244        1.8729151003
 O        -7.4194753207        1.3324278295        1.1962786174
 C        -8.0257009646        0.3707050244        3.3841583423
 C        -6.6209649024       -0.4924664990        3.4650614817
 O        -6.7946683271       -1.6815077965        3.3077420536
 C        -5.3262963957        0.1979573456        3.6099538839
 C        -7.7745226086        1.6569484632        4.2594430913
 C        -9.0813395656       -0.5309752679        3.9476937737
 C       -11.1478517967       -3.1334468821       -0.3209160620
 C        -8.8376078159       -3.9939264623        0.1071590149
 C        -6.2228323443        0.0912811457       -5.5998196442
 C        -4.9937158251        0.0994686803       -3.2905298994
 C       -10.4615066396        6.0161618992       -2.7488577952
 C        -8.2331014215        6.6747310323       -3.6461991703
 C        -9.3666409091        9.2673201056        3.0425481833
 C       -10.9669159107        7.2792453711        2.6465090058
 C       -13.4025806905        9.9249396627        5.0886335173
 C       -14.9120627843        7.7630977728        5.4276620722
 H       -17.6916440252        8.7831432753        4.8969787700
 H       -17.6656534044       10.5914891281        5.1889536178
 H       -17.0843531177        9.5362218404        6.2571173992
 H       -13.4542641907       10.5028667725        2.2816408800
 H       -14.8999428970        9.6560146977        1.3523295557
 H       -12.9765983948        9.1601971479       -0.0074144921
 H       -12.6661659551        7.8342211678        1.2009890581
 H        -9.8755698127        6.0977857002        0.5895581344
 H        -8.4538087367        6.4294009117        1.5234895902
 H        -7.0879815489        6.0595888482       -0.1999042450
 H        -8.0097052427        7.2301111773       -1.2935688556
 H        -6.8322165726        4.5686140879       -4.0074095333
 H        -7.7508220954        4.6542542776       -5.4722654531
 H        -6.4172512865        2.7863925564       -5.5839167986
 H        -8.1156857926        2.1230635675       -5.5014461953
 H        -6.5411386631       -2.3228725706       -4.1708497210
 H        -8.3754042987       -2.3479417511       -4.2836485269
 H        -7.0889437705       -2.5341975366       -1.5339991625
 H        -7.2272247013       -3.9123895707       -2.5531470557
 H       -10.5790066931       -1.3246175956        1.6483776243
 H       -10.9489688538       -0.5192859506        0.1032582423
 H       -10.5977390376        0.9151455309        1.9686361665
 H        -9.7816311835        1.3606355772        0.4588301280
 H        -5.4313248811        1.1419845282        3.0893591038
 H        -4.5519966476       -0.3806260772        3.1325804583
 H        -5.1022215632        0.3461704953        4.6997377937
 H        -6.7135915518        1.9574737824        4.2712987378
 H        -8.1237082944        1.3248482202        5.2056204476
 H        -8.3872041917        2.4952700782        3.8619462394
 H        -9.9335672154        0.1332679360        4.2466212332
 H        -8.7513383288       -1.1495953900        4.7761650437
 H        -9.4453797979       -1.3084974935        3.1977858366
 H       -11.3961007951       -3.0254663705        0.6935057010
 H       -11.3911951481       -4.1121535269       -0.7079764028
 H       -11.7153493907       -2.3612685561       -0.8120677209
 H        -8.1296221661       -3.4719854613        0.8007047095
 H        -8.1268490935       -4.5420286394       -0.4741507908
 H        -9.3762139700       -4.7421854400        0.6581829538
 H        -5.8963683224       -0.9441727588       -5.8368727715
 H        -5.4679937308        0.6591838061       -6.2046191648
 H        -7.2093572294        0.3300121173       -6.0682076937
 H        -4.8817070814       -0.9600528650       -3.0731196757
 H        -4.8540580720        0.7170427635       -2.4613716393
 H        -4.2002101890        0.1737377363       -4.0036428521
 H       -10.6360431371        6.4896837676       -1.8075511531
 H       -11.0095305738        5.0420606761       -2.5880397043
 H       -10.7050388330        6.5189408468       -3.7344414707
 H        -8.2254581258        7.5979157034       -3.1029438985
 H        -8.6061112760        6.7420854802       -4.7200965614
 H        -7.1309173903        6.3949841197       -3.8954539021
 H        -8.4844949933        8.7436995000        3.0311365828
 H        -9.8079302977        9.1494729777        4.0766748349
 H        -9.3173773778       10.2801251117        2.6241513273
 H       -10.2292827024        6.6636226614        3.2147266153
 H       -11.4033414249        6.6005115532        1.9090263526
 H       -11.8250133134        7.7300748834        3.2347872181
 H       -13.4903225505       10.2999614774        6.0991725767
 H       -13.3942122843       10.7676818868        4.4401572163
 H       -12.5323987976        9.3198134742        5.1318568688
 H       -15.2380599693        7.0621478464        4.6507195605
 H       -15.7929862738        8.1149899141        5.9097292426
 H       -13.9907816858        7.4492855980        5.9770403974
 Na       -8.0170049283        1.4065865491       -1.1854069038
