117

 C       -16.1305480850       -1.7828853894        1.0581770261
 C       -14.6542719108       -2.2630060606        1.1250222243
 O       -14.2614234451       -2.3897970744        2.2527940970
 C       -13.7093012888       -2.6755542725       -0.1478935851
 C       -12.3491860144       -1.8828943912       -0.0480102256
 O       -12.2455866208       -0.8669715724       -0.6998620195
 C       -11.0983292414       -2.4796806199        0.5675024460
 C        -9.8926067011       -1.4779768917        0.4702594842
 C        -8.5481247608       -1.8278728101        1.1225251132
 O        -8.2312008955       -2.9764789794        1.3175385069
 C        -7.4727271981       -0.6509036516        1.6018770978
 C        -8.1771001149        0.4830472908        2.4696399280
 O        -9.3127035149        0.8969413015        2.2254566712
 C        -7.3166889050        1.2269444462        3.5105433313
 C        -7.9519513161        2.5185434184        4.0757969298
 C        -8.7003822785        3.3436615112        3.1147985760
 O        -8.0671625259        3.8400021565        2.1438059718
 C       -10.1074941688        3.8719749070        3.5943992399
 C       -10.9438071234        4.3938510729        2.2491008886
 O       -10.7082505436        5.4247954327        1.7255652456
 C       -12.1616798943        3.5056025869        1.7926020657
 C       -12.2874818742        3.5709499347        0.2722683153
 C       -10.9504539814        3.3618894288       -0.4226435209
 O        -9.9627884717        3.3930037351        0.2714990640
 C       -10.7719551007        3.0327897510       -2.0523579132
 C        -9.9091986232        4.3152726475       -2.4113791437
 O        -8.8617650951        4.5369454062       -1.8420899527
 C       -10.6453762981        5.3805640545       -3.3061940170
 C        -9.6111630081        6.4289358875       -3.6893319465
 C       -10.2391022276        7.7080053975       -4.2804567845
 O       -11.3179288899        7.6998827914       -4.8523334784
 C        -9.2771971297        9.0638216522       -4.3774419948
 C        -8.7696831346        9.3088549286       -2.8861875646
 O        -7.6012157955        9.0769041763       -2.6848264178
 C        -9.7061986833        9.9656254264       -1.8476804694
 C        -8.9643734435       10.0046728966       -0.4935634319
 C        -8.5609009883        8.6050790953       -0.0608001293
 O        -9.2665589651        7.5935068231       -0.1677638503
 C        -7.0966591416        8.4419940524        0.7309166274
 C        -6.2518302859        7.6312379927       -0.3145291803
 O        -6.5271287897        6.4418833635       -0.4308471035
 C        -5.0406084174        8.3886311825       -1.0088578873
 C        -6.4627126561        9.7693681210        1.3270735744
 C        -7.4877076340        7.6166849830        2.0342254682
 C        -8.1283618336        8.5447050127       -5.2283324271
 C       -10.0304938091       10.1948649762       -5.0129159941
 C        -9.9100517520        1.7308223841       -2.1152195190
 C       -12.0211271329        2.6871000125       -2.8333585834
 C       -11.0283816598        2.8765540215        4.4078912109
 C        -9.7318044380        5.1113039355        4.5399969446
 C        -6.4619192141       -1.2379980210        2.6024045337
 C        -6.6618349625       -0.1258993376        0.2971549767
 C       -13.6399810354       -4.1825968407       -0.2191806234
 C       -14.3838601963       -2.2408080729       -1.4751036013
 H       -16.6919479276       -2.1684728837        0.2289989573
 H       -16.1978196033       -0.8016442870        0.7730660953
 H       -16.6001001833       -1.9437152263        2.0201628133
 H       -10.8192436912       -3.3877810450        0.0623134785
 H       -11.2521948591       -2.8228828324        1.6193485877
 H       -10.2221353379       -0.4962850161        0.8620233044
 H        -9.8266934844       -1.3419741356       -0.6333456207
 H        -6.2742337612        1.4728738048        3.1689313964
 H        -6.9825702103        0.5066072786        4.2703857369
 H        -7.1472144115        3.0788001349        4.5503021617
 H        -8.6681255527        2.2686441861        4.9371859664
 H       -13.0160375799        3.8904644493        2.2572719641
 H       -12.0989268110        2.5062399722        2.1890092222
 H       -12.6567298751        4.5733185366        0.0021541241
 H       -12.9909244747        2.8284286319        0.0135985738
 H       -11.5210284253        5.6728942320       -2.7317490271
 H       -11.0342778556        4.9474109050       -4.1852721469
 H        -8.9449960849        5.9468998822       -4.3493562816
 H        -9.0191534783        6.7166867199       -2.8566082561
 H       -10.6324016435        9.3669662303       -1.6814103121
 H       -10.0440315367       10.8562230105       -2.3382599515
 H        -9.4830283196       10.3887665144        0.3128696312
 H        -8.0654182162       10.5730498396       -0.6661477752
 H        -5.3431425227        9.3910034759       -1.1892611810
 H        -4.7628818599        7.9049786167       -1.9043298226
 H        -4.1942354649        8.4561712882       -0.3820902861
 H        -7.0906135406       10.2937062895        2.0545608439
 H        -6.2183450044       10.5601644593        0.5837859752
 H        -5.5379829051        9.5596625730        1.7003374451
 H        -8.4045112512        7.1091513429        1.8537422116
 H        -7.6086511426        8.3435302390        2.8364507737
 H        -6.7490543197        6.8486981913        2.2425041269
 H        -8.5303953163        7.9063996145       -5.9899360424
 H        -7.4384064745        7.9645798716       -4.6394139325
 H        -7.6008410584        9.3506041564       -5.8139496173
 H       -10.8424905950        9.8952382763       -5.6281902696
 H        -9.3584219277       10.8675830961       -5.4631690824
 H       -10.5021067816       10.6986778746       -4.2302299441
 H       -10.4252379033        0.8425042269       -1.6144167865
 H        -9.0404966871        2.0090228474       -1.5107038827
 H        -9.5315831667        1.3563517224       -3.1250045720
 H       -12.6513010412        3.4794467505       -3.1487385010
 H       -12.6289458595        2.0916547948       -2.1668072711
 H       -11.7873254709        2.1686690963       -3.7139096393
 H       -11.1067137756        1.9154047145        3.9450824804
 H       -12.0225650588        3.4228495470        4.4756423203
 H       -10.6935557073        2.8741200046        5.4219766817
 H        -9.8157732580        6.0319056724        3.9674159166
 H        -8.7149911483        4.9712824223        4.8703762609
 H       -10.5021522430        5.1984226249        5.2764586737
 H        -5.9524831530       -2.1511794416        2.2745026004
 H        -6.9565776469       -1.3911886137        3.5953109281
 H        -5.6703683806       -0.4999588635        2.7300899976
 H        -7.2575789426        0.5144832001       -0.3856518087
 H        -6.3719318304       -1.0016770003       -0.2552714659
 H        -5.7147535365        0.3802758471        0.4577719841
 H       -13.1945120807       -4.7055994447        0.6159673294
 H       -12.9895482672       -4.5660537388       -1.0002808647
 H       -14.5002119676       -4.7125052257       -0.4617920572
 H       -14.5205771682       -1.1871869234       -1.6092688506
 H       -15.4260546876       -2.4871873912       -1.3908274597
 H       -14.0339371564       -2.7770166458       -2.3571365824
 Na       -8.3241585902        5.4160853637        0.4291841735
