117

 C       -17.1936163421        9.7258668225        5.0898678061
 C       -15.9626994846       10.0813109060        4.4325487292
 O       -15.9140267119       11.1415775410        3.8974088810
 C       -14.4971843178        9.1662983508        4.5501922686
 C       -14.2611276594        8.6331409752        3.0244587284
 O       -14.0959204333        7.4740597525        2.7626947350
 C       -13.9024447020        9.7435544732        2.0262809240
 C       -12.8707081700        9.2217219034        0.9909903506
 C       -11.4152155707        9.6867648089        1.4568314008
 O       -11.0306768001       10.8342473930        1.2054110890
 C       -10.1498748687        8.5138864112        1.9894592384
 C        -9.3896193019        8.0023210484        0.7608827983
 O        -9.0480003032        8.7673595139       -0.0802188457
 C        -9.0504245869        6.4681626138        0.5797640862
 C        -7.9723093292        6.2104450451       -0.5221860157
 C        -8.5852313793        5.1500283608       -1.5543740529
 O        -8.6994389624        3.9742224808       -1.1858403419
 C        -8.9903342144        5.5363522140       -2.9787129621
 C        -8.9417878993        4.2632846765       -3.8719585512
 O        -9.6923046456        3.3504236548       -3.6876985304
 C        -7.9361037640        3.8998691179       -4.9909721836
 C        -7.6931698255        2.3590971252       -5.0604706246
 C        -6.9926965646        1.7943610074       -3.8869085913
 O        -6.7125589369        2.4388018688       -2.8884325231
 C        -6.4687132371        0.2864542543       -4.1704899100
 C        -7.5368397010       -0.6083407623       -3.5055628950
 O        -8.2690597247       -0.2254245488       -2.6206173032
 C        -7.2990982818       -2.1779164088       -3.8150797270
 C        -7.6431216396       -2.9548024244       -2.4999109608
 C        -9.1992153460       -3.0641084610       -1.9882839409
 O       -10.1679964804       -3.0059675123       -2.7155101438
 C        -9.4954137130       -3.0091299897       -0.4199463826
 C        -9.3189422082       -1.5079368728        0.0793812291
 O        -8.2884756754       -0.9409315484       -0.1995431890
 C       -10.3415571267       -0.6900979597        0.9541151057
 C        -9.7271695930        0.6999645427        1.3297230289
 C        -8.3186118437        0.7603437534        1.9579583607
 O        -7.4992220686        1.3437409155        1.2847724643
 C        -7.9789592370        0.3809044463        3.4098129444
 C        -6.6236803409       -0.5549842739        3.5333782698
 O        -6.7297380753       -1.7368947933        3.5565489045
 C        -5.2396086029        0.1982817564        3.6588737301
 C        -7.9634971947        1.8691569232        4.1476313479
 C        -9.1321188597       -0.4541077486        3.9836115407
 C       -11.0623878662       -3.4194667435       -0.3975294067
 C        -8.6801679926       -3.9928578873        0.5388348101
 C        -6.2353511358       -0.0382775608       -5.6809397678
 C        -5.1627175349       -0.1143520545       -3.3317691966
 C       -10.5678465546        6.0652749203       -2.9138934297
 C        -8.1683981821        6.7076499692       -3.5625442007
 C        -9.3001273497        9.3189971041        3.0273521603
 C       -10.7558791750        7.3677420765        2.7783945939
 C       -13.2981967120       10.1618593896        4.9655344859
 C       -14.6139702501        8.0681901841        5.6247616528
 H       -17.6945138608        8.8386579528        4.5255982972
 H       -17.7283886011       10.7026985663        5.2596457617
 H       -17.1890180687        9.3347515415        6.1139689223
 H       -13.3607728964       10.4797692641        2.3913127528
 H       -14.8071549246       10.2143519544        1.6212260718
 H       -13.0982296404        9.6146778281        0.0700348803
 H       -12.9067340246        8.0846375297        1.0762507108
 H        -9.9480188884        5.9152132408        0.3635964675
 H        -8.6261512639        6.1543259334        1.5198544848
 H        -7.0943926808        5.7674259319       -0.0646541417
 H        -7.8593143723        7.2483565125       -1.0395364000
 H        -7.0399338405        4.4604956091       -4.8560662422
 H        -8.2979170310        4.0752883759       -6.0519743268
 H        -7.0264264850        2.3028139486       -5.9977328189
 H        -8.7878671613        1.8786289176       -5.0678011608
 H        -6.2612240662       -2.2320829811       -4.0054221741
 H        -7.9783055248       -2.5320318547       -4.6475882326
 H        -7.0049539202       -2.8565386179       -1.6397139786
 H        -7.5930941246       -4.0223733083       -2.6578583518
 H       -10.6935141038       -1.3323040486        1.7784211381
 H       -11.2051057354       -0.5770998425        0.2552820330
 H       -10.5233161932        1.1932071400        1.9425109222
 H        -9.6954927582        1.1763210408        0.3519988770
 H        -5.0829177924        1.0347988343        2.9621814957
 H        -4.5218510271       -0.6140053736        3.4084063372
 H        -5.0988296250        0.4489104899        4.6852689967
 H        -6.9546224002        2.2011961219        4.2771530430
 H        -8.5650911983        1.6982425259        5.0909827816
 H        -8.5502722365        2.5283250825        3.4982044587
 H       -10.1020357873       -0.1899777010        3.6242539492
 H        -9.1350437560       -0.5196015705        5.0997656574
 H        -8.8611438368       -1.4532809174        3.7283053863
 H       -11.3976401083       -3.5257575341        0.6823174653
 H       -11.2070119439       -4.4126132737       -0.9082348098
 H       -11.6424246407       -2.5799027599       -0.8177627963
 H        -8.5589036462       -3.6964693236        1.5239340347
 H        -7.5845048849       -3.9768023021        0.3169879028
 H        -8.9326825068       -5.0665090831        0.4034592389
 H        -5.6724311572       -0.9755039256       -5.7454377369
 H        -5.5710273091        0.6219222160       -6.2359092105
 H        -7.1385015294       -0.0259036877       -6.2811363314
 H        -4.4980400214       -0.7615940461       -3.9959849171
 H        -5.4940747288       -0.7587083258       -2.4105476348
 H        -4.4722583684        0.7352835509       -3.0082398888
 H       -10.7074255807        6.9821447639       -2.3551558998
 H       -11.0472379037        5.3781893602       -2.3391351452
 H       -10.8786734241        6.0622536265       -3.9058160210
 H        -8.5024316806        7.7500822375       -3.3829229065
 H        -8.0308073690        6.4889489703       -4.5372385412
 H        -7.1332643301        6.6697737239       -3.3176895017
 H        -8.6607943415        8.5602710826        3.6312612048
 H       -10.0599700116        9.6279593743        3.6789023605
 H        -8.7527720387       10.0949853368        2.4729003353
 H       -10.0015375061        6.5960726824        2.8673468052
 H       -11.3823297659        6.7959704665        2.1037887197
 H       -11.2605561330        7.7183615712        3.6237081167
 H       -13.3201722019       10.1492547323        6.0489568769
 H       -13.4153656535       11.1668415569        4.5191351696
 H       -12.2896499555        9.7394859836        4.7145391528
 H       -14.4941580430        7.1734500444        5.0786700946
 H       -15.4799990950        8.2529895587        6.2031890837
 H       -13.6847717277        8.1668099616        6.1750635264
 Na       -8.0148905836        1.4836019371       -0.8264490526
