117

 C       -16.6178768744        9.2436159797        4.1462117333
 C       -15.6592787924       10.4894579246        4.2876523383
 O       -16.0116419320       11.6629746666        4.0741097522
 C       -14.0662203795       10.1998034088        4.3868120204
 C       -13.7053680467        9.5441470456        3.0088072271
 O       -13.8361760891        8.3411136779        2.9298759965
 C       -13.2306152042       10.4176488900        1.8042706960
 C       -12.6135876101        9.5272674025        0.6939564412
 C       -11.0148395507        9.6272611832        0.7378738120
 O       -10.4037324596       10.5563317630        0.2727497514
 C       -10.2460812640        8.6547581738        1.5841590498
 C        -9.3074450016        7.9423637150        0.5207905457
 O        -8.1713897782        8.2892433606        0.1412558460
 C        -9.6762049196        6.6133859261       -0.0579085447
 C        -8.4663263809        5.6790694260       -0.3119273947
 C        -8.8631913062        4.6155892083       -1.3715265781
 O        -8.8419809767        3.4697549692       -1.0492861922
 C        -9.0764668716        4.8852471014       -2.9715934922
 C        -9.3078598601        3.5237593379       -3.6495616537
 O       -10.1075201852        2.6859016995       -3.2520803216
 C        -8.6544986709        3.4276339262       -5.1080037998
 C        -8.1364518356        1.9899005287       -5.3544069518
 C        -7.2041307623        1.5082411297       -4.3023547069
 O        -7.0356091943        1.9784542140       -3.1874073862
 C        -6.7505722402       -0.0116473102       -4.3745084028
 C        -7.9279936329       -0.8336228786       -3.4992376274
 O        -8.6677073282       -0.4049592580       -2.6205336754
 C        -7.8153104937       -2.2941075895       -3.6094277412
 C        -7.6477046378       -2.8907459105       -2.1157051843
 C        -8.9688401352       -3.0442549150       -1.4617391360
 O       -10.0118260552       -3.2277677076       -2.0644910966
 C        -8.9791287303       -3.1379831821        0.1263860302
 C        -8.9695925782       -1.6384449691        0.6049766680
 O        -7.8981471949       -0.9895624271        0.4428216266
 C       -10.1923865020       -1.0232237585        1.2819500582
 C       -10.0815393161        0.5111570358        1.3497244004
 C        -8.8188807521        1.0926446441        2.1535609846
 O        -8.0440690233        1.8873650535        1.5981558044
 C        -8.3901752898        0.7521963699        3.6717498269
 C        -7.0519440084       -0.1025413695        3.5040314177
 O        -7.1347144910       -1.2799161512        3.8841766443
 C        -5.6456983636        0.4520995023        3.1661830753
 C        -7.9508248667        2.0526379979        4.3156627354
 C        -9.4693947331        0.0173478481        4.4853429404
 C       -10.3790387917       -3.9000930292        0.4885450463
 C        -7.8719570252       -3.8907594108        0.7776765963
 C        -6.7164587709       -0.5055132331       -5.7614204608
 C        -5.4273178572       -0.1593092404       -3.6727077764
 C       -10.1156167303        5.9547483183       -3.3276621805
 C        -7.7179843090        5.5875877970       -3.5227036384
 C        -9.1979921276        9.3360173346        2.6062368628
 C       -10.9656061912        7.6216948581        2.3887915328
 C       -13.3087272801       11.5558877757        4.7154350884
 C       -13.9389215269        9.1081078190        5.5953647265
 H       -16.3139791609        8.6353118922        3.3547379050
 H       -17.6465833389        9.4276033091        3.8122472621
 H       -16.6734384633        8.6361811398        5.1040751061
 H       -12.4567460518       11.1856803952        2.1783217699
 H       -13.9781726207       10.9351833353        1.3537297173
 H       -12.9784366514        9.8958965629       -0.3144456782
 H       -12.8792961169        8.5532147676        1.0022300130
 H       -10.0701266594        6.8105200267       -1.0667310166
 H       -10.3865336870        6.0210821624        0.4455892140
 H        -8.1788320331        5.3161658312        0.6259761320
 H        -7.4503830474        6.2568214589       -0.5447541627
 H        -7.8398816762        4.1030165396       -5.1684633103
 H        -9.4262888856        3.6778292246       -5.8571508317
 H        -7.6056758567        1.8360348890       -6.3834409475
 H        -9.0184525507        1.2796485330       -5.5381883161
 H        -7.0560852824       -2.6519082277       -4.2818248950
 H        -8.8099194699       -2.6387652210       -3.9998101594
 H        -7.0801216984       -2.1860470639       -1.4999316865
 H        -7.1912243027       -3.8808311951       -1.9618993793
 H       -10.1304744354       -1.4739003268        2.2879645623
 H       -11.1656292561       -1.4190884856        0.8954925171
 H       -10.9598107183        0.7490187897        1.8416038721
 H       -10.2154601335        1.0382534858        0.3322075235
 H        -5.8286977051        1.3262673070        2.5343479231
 H        -4.9572568718       -0.3176489176        2.8651289379
 H        -5.2475728638        0.7567979145        4.1032548310
 H        -6.9421577366        2.3292182703        4.2462519428
 H        -8.1291736982        1.7499206429        5.3404949159
 H        -8.6547826975        2.8668655808        4.1039157027
 H       -10.3385077548        0.6330710800        4.6261058887
 H        -9.1145952266       -0.1548196375        5.5005689478
 H        -9.8601672218       -0.8831561863        3.9445139163
 H       -10.4224130983       -3.9146307826        1.5219552396
 H       -10.2571853029       -4.9149421747        0.1179656063
 H       -11.2182111755       -3.4991388452        0.0130917160
 H        -7.2003477772       -4.4240261537        0.1482853383
 H        -8.1610013582       -4.3754530328        1.6915668896
 H        -7.2193830420       -3.1397594435        1.2398076756
 H        -6.6524575032       -1.6414496092       -5.9983072629
 H        -5.7461541019       -0.1411043308       -6.1295876286
 H        -7.5157270955       -0.2416935444       -6.5002314548
 H        -5.4496155866       -0.6886270994       -2.7663825700
 H        -5.2541368022        0.7913279770       -3.2719368339
 H        -4.7712450922       -0.5386770336       -4.3557114495
 H        -9.8938184438        6.9862986917       -3.0583640205
 H       -11.0753045395        5.4887739675       -3.0109948751
 H       -10.3389230266        5.9774221442       -4.4568505498
 H        -7.3302848009        6.4796574230       -3.0505929340
 H        -7.9200260891        5.9724316502       -4.5741076845
 H        -6.8638771599        4.8671691048       -3.5461550744
 H        -8.8308082763        8.5092942359        3.2022521242
 H        -9.8371066856        9.9763649614        3.1997206973
 H        -8.4755245007        9.9136431736        2.0272569776
 H       -10.2559423122        6.7641883820        2.7103337150
 H       -11.8951786339        7.4023370598        1.9366843677
 H       -11.2253834170        8.0657353795        3.4161147215
 H       -12.4166994723       11.3806018012        5.3331545880
 H       -13.8852893549       12.3791869796        5.1144166726
 H       -12.9384795578       11.8574556349        3.7132686984
 H       -13.8632812572        9.6468715206        6.5277392142
 H       -13.0384784625        8.5213632424        5.3305520370
 H       -14.7627905366        8.3033561026        5.5430032514
 Na       -7.9487261748        1.3090942680       -0.8792347662
