117

 C       -15.9671967469       -1.7599117799        1.2310573622
 C       -14.5162922292       -2.2546805510        1.3367898680
 O       -13.8958050795       -2.3461114886        2.3745820339
 C       -13.7836781562       -2.6348771313       -0.0158572436
 C       -12.3430535941       -1.8116247350       -0.0256581680
 O       -12.2839064888       -0.7341896459       -0.5562396977
 C       -11.0618611834       -2.3332225557        0.6973003707
 C        -9.8805224798       -1.3306972939        0.4940778320
 C        -8.6258820498       -1.8032316335        1.1474439055
 O        -8.3809119996       -2.9365350519        1.2910484777
 C        -7.4651835487       -0.6937896144        1.6281216395
 C        -8.1628384304        0.5284513121        2.3191183923
 O        -9.3231599418        0.8703529794        2.2172771403
 C        -7.3389771521        1.2366244601        3.4488833567
 C        -7.9877867775        2.5176252562        4.1169357668
 C        -8.7245028583        3.3940416008        3.0701761589
 O        -8.1469346021        3.8590780634        2.1667496143
 C       -10.2166606993        3.9232844521        3.4983090862
 C       -10.9726601677        4.4066734191        2.2834571832
 O       -10.6128977551        5.4744412776        1.7917320336
 C       -12.1838419276        3.6391172647        1.6830740743
 C       -12.3099409516        3.6162229716        0.1310982510
 C       -10.8954523287        3.2338897476       -0.4018137949
 O        -9.9218542999        3.2247954155        0.3259033083
 C       -10.6681178828        2.9785257386       -1.8881163138
 C        -9.9577265440        4.2877828435       -2.3706895675
 O        -8.8819943139        4.5961046057       -1.8156720119
 C       -10.5616217761        5.3540161194       -3.2734450194
 C        -9.6067649441        6.4537942585       -3.7354875357
 C       -10.3170718699        7.6835938806       -4.2773747090
 O       -11.3426595875        7.5795558872       -4.9109303705
 C        -9.4160363657        8.9281966995       -4.4158149368
 C        -8.8107484325        9.3789585566       -3.0154716683
 O        -7.6615166774        9.1602972924       -2.6606591791
 C        -9.7672065326        9.7724808486       -1.8730775332
 C        -8.9421629207        9.9228067035       -0.6230519544
 C        -8.4966657232        8.6192026993       -0.0918730825
 O        -9.1325027761        7.6097311997       -0.2866622119
 C        -7.2159665817        8.5035219883        0.7189776255
 C        -6.2573892331        7.6837558554       -0.2204294133
 O        -6.3982860953        6.5170646092       -0.6054597676
 C        -5.1248681046        8.4246847942       -0.9106842807
 C        -6.7321381200        9.8706777420        1.0876893840
 C        -7.4248783647        7.5782247345        1.8972083588
 C        -8.1492780665        8.4985545333       -5.2900019860
 C       -10.1460603884       10.0626186496       -5.1095115282
 C        -9.7189437984        1.7814208215       -2.1025290486
 C       -12.0012074161        2.6383701658       -2.6488751254
 C       -10.8974713566        2.7820976194        4.2656960354
 C        -9.9023556141        5.0477115072        4.4823096792
 C        -6.3893596094       -1.4383004900        2.4384944845
 C        -6.8129934637       -0.0948874166        0.4226502482
 C       -13.5264339054       -4.1040883018       -0.0289068522
 C       -14.4354580258       -2.2949665804       -1.3521906486
 H       -16.5101400129       -2.1514228731        0.4469194199
 H       -16.0129775159       -0.6857818418        0.8652914680
 H       -16.4597764860       -1.8854841417        2.1197557368
 H       -10.7113079909       -3.3908839572        0.4287152851
 H       -11.2705444952       -2.4372808160        1.7415885293
 H       -10.2454945095       -0.3101320520        0.9718128688
 H        -9.8879335635       -1.1777313464       -0.6354081797
 H        -6.3155534300        1.5196834849        3.1650367241
 H        -7.0234249562        0.4207009305        4.0990649132
 H        -7.2287778363        3.0839345470        4.7583610430
 H        -8.7162844303        2.1735070608        4.8481751273
 H       -13.0298038778        4.0269465267        2.1903483458
 H       -12.1257452664        2.5760822994        2.0799235428
 H       -12.4696170640        4.6603557544       -0.2935498095
 H       -13.1219002169        2.9588694871       -0.0866350823
 H       -11.3941761646        5.7655398259       -2.7143263368
 H       -11.0523730666        4.8248825354       -4.0795892508
 H        -8.7940526876        6.0666071247       -4.4063116151
 H        -9.1156006626        6.8011239203       -2.8301027762
 H       -10.4773161574        8.9981588889       -1.7948039807
 H       -10.3342305030       10.6486329817       -2.1425167328
 H        -9.4967638879       10.3100252341        0.2341903601
 H        -8.1993908986       10.6305661344       -0.8809665677
 H        -5.2666052407        9.4276012061       -1.1117670184
 H        -4.7294411016        7.8650750935       -1.7435215673
 H        -4.3505062881        8.4279364820       -0.1840538835
 H        -7.3975009340       10.4967034463        1.6615635310
 H        -6.3778564272       10.5085039858        0.3143962349
 H        -5.7026360482        9.6675394777        1.5870932148
 H        -8.4615397955        7.2037322740        1.7727350662
 H        -7.3435718966        8.1961400388        2.8190202204
 H        -6.8181799843        6.7777144807        1.8514587976
 H        -8.4382748983        8.0208986080       -6.1934141455
 H        -7.4865789845        7.8096646255       -4.7001132830
 H        -7.6174026390        9.3260075167       -5.6226101005
 H       -11.0018678274        9.6792254161       -5.6537605589
 H        -9.4196088535       10.6226423123       -5.6599434981
 H       -10.6150910838       10.7866916675       -4.4099996024
 H       -10.1773350011        0.8020661716       -1.8995228729
 H        -8.7200848112        1.8449615177       -1.5518011066
 H        -9.4660624503        1.8148097939       -3.1663611014
 H       -12.6011972629        3.4960200875       -2.6603673838
 H       -12.5977025286        2.0031111886       -2.0702743334
 H       -11.9223556665        2.2639494272       -3.6673586887
 H       -10.5853759475        1.8451276294        3.8465200835
 H       -11.9891773170        2.9262427914        4.2267619659
 H       -10.6400071872        2.9185855766        5.3136480942
 H        -9.4648395821        5.8380213905        3.9294450735
 H        -9.1697520976        4.5973426968        5.1890825897
 H       -10.8229258589        5.4300109306        4.8631429434
 H        -6.3977151489       -2.5002284258        2.0236096575
 H        -6.7433462004       -1.5285325877        3.4838612015
 H        -5.3559563586       -1.0810372938        2.3837763457
 H        -7.5304543732        0.4626311100       -0.1644848562
 H        -6.2165231393       -0.7940979286       -0.2350822049
 H        -6.0770798537        0.6803716601        0.6948592576
 H       -13.1154428987       -4.5238684996        0.8633387115
 H       -12.8382529020       -4.4855968249       -0.7375169639
 H       -14.3207167664       -4.7277647635       -0.2828505773
 H       -14.2048657795       -1.2445960144       -1.5035810837
 H       -15.4751927159       -2.1852096482       -1.4433317868
 H       -14.0830304806       -2.9667117816       -2.1294153476
 Na       -8.3589562035        5.3256111760        0.4085791288
