117

 C       -16.4911131242        9.3497510135        4.0101247105
 C       -15.6332934187       10.5659320546        4.2150417118
 O       -16.0460931817       11.6688860006        4.1769820695
 C       -14.0785121558       10.2761282309        4.3107092671
 C       -13.7237720605        9.6458415184        3.0883090605
 O       -13.6325529782        8.4018407094        2.9742962613
 C       -13.1809065276       10.5082147366        1.9338421262
 C       -12.5353376252        9.5574588599        0.7790307843
 C       -10.9377817965        9.7620292511        0.8323356977
 O       -10.4889994496       10.5702588490        0.0415500784
 C       -10.0989409759        8.5282037969        1.4945527680
 C        -9.1637382199        7.8250780070        0.5226749054
 O        -8.0317993381        8.2994339195        0.3346295574
 C        -9.8131791970        6.5562824192       -0.1697415809
 C        -8.7200346347        5.6169812411       -0.4751230455
 C        -8.8214845785        4.4677956726       -1.4244427321
 O        -8.9460139669        3.3434093347       -0.9706257133
 C        -9.0937342596        4.8805912599       -2.9379209732
 C        -9.3020723199        3.4934632952       -3.6440733395
 O        -9.9715951784        2.6021731979       -3.1030587704
 C        -8.7877234875        3.3227997736       -5.0662505166
 C        -8.1721284981        1.9537299013       -5.2861874020
 C        -7.3859114896        1.3327021567       -4.1516309772
 O        -7.1202761585        1.9375758608       -3.1683030437
 C        -6.9003875822       -0.1670939933       -4.3597166225
 C        -7.8984195885       -0.9069678587       -3.4905846830
 O        -8.4359116488       -0.3003084037       -2.6041442068
 C        -7.8562427557       -2.4421763604       -3.5614400049
 C        -7.5728880583       -2.8833914779       -2.0930152060
 C        -8.9438222673       -3.0922806294       -1.3853324923
 O        -9.9867629878       -3.1701754183       -1.9555113286
 C        -8.8357891784       -3.1514977668        0.2208307995
 C        -8.8896594042       -1.5795290235        0.5992457944
 O        -7.8912789707       -0.9133245074        0.3611965012
 C       -10.0932069012       -1.0302732728        1.3449507310
 C        -9.9756807541        0.5123320973        1.5628824729
 C        -8.8188414334        1.2017983600        2.0977457910
 O        -8.1371786074        1.8703038966        1.3570900312
 C        -8.4141971604        0.8705154214        3.6156591344
 C        -7.1539109393       -0.1115031018        3.5762134518
 O        -7.2356423777       -1.2906271105        3.8725937075
 C        -5.7792818348        0.4001290510        3.1111011586
 C        -7.9956520758        2.2438807001        4.4143810573
 C        -9.5035946344        0.0729294352        4.2940865757
 C       -10.2197748909       -3.8115318873        0.5736867832
 C        -7.6629945117       -4.0493799533        0.7921525798
 C        -6.9562270985       -0.7066311693       -5.8069969479
 C        -5.5366295276       -0.2912886013       -3.4633286548
 C       -10.0196018972        6.0552207848       -3.1808093506
 C        -7.6740823711        5.5519473709       -3.4273428825
 C        -9.0302010117        9.3235875325        2.4249371335
 C       -11.0917403177        7.5635116900        2.2283816831
 C       -13.4128289245       11.6058057609        4.5417931143
 C       -13.8206213937        9.3163548996        5.4762476277
 H       -16.3449382969        8.6838766458        3.1202995115
 H       -17.5399068813        9.7580829224        3.6916364294
 H       -16.6443745789        8.7825086890        4.9700695285
 H       -12.3929979860       11.2317489413        2.3228098501
 H       -13.9220716838       11.0691780719        1.4261329512
 H       -12.7467203745       10.0967078969       -0.2316868759
 H       -12.9222703344        8.5858050335        0.8736815792
 H       -10.4718611992        6.7342235914       -0.9950622218
 H       -10.4131718395        6.0418769088        0.5449948966
 H        -8.2999943683        5.4008071953        0.5448745554
 H        -7.9616432915        6.2361247064       -0.7941824755
 H        -8.0321214089        4.1705546493       -5.2328651308
 H        -9.5931414991        3.4262764474       -5.7584155905
 H        -7.4478066215        2.0596371093       -6.2163380458
 H        -8.9467797576        1.2488379420       -5.8351625042
 H        -6.9964364524       -2.8067767791       -4.2290994506
 H        -8.7344809883       -2.8876052910       -3.9712155844
 H        -7.0736394163       -1.9928293873       -1.7285643681
 H        -6.9888540019       -3.7293494790       -1.7997880938
 H       -10.1579490261       -1.7122572302        2.2448683026
 H       -11.0053959399       -1.2453674584        0.7663282219
 H       -10.8336513526        0.7556384186        2.2319936548
 H       -10.3091799966        1.0088542747        0.5941362861
 H        -6.0194396920        1.2689896507        2.5234548981
 H        -5.2819138324       -0.4010427979        2.6092713479
 H        -5.1018814354        0.6206691856        3.9722770338
 H        -7.0856799120        2.7512958126        3.9343344782
 H        -7.7317954237        1.9283615659        5.3970082392
 H        -8.8572200556        2.9446213767        4.4689305182
 H       -10.3756064914        0.8086015905        4.4358580546
 H        -9.1780587216        0.0359452777        5.3086945793
 H        -9.9458367986       -0.8705370550        3.8748487922
 H       -10.5234232389       -3.5078252593        1.5580657787
 H       -10.0874269534       -4.8404358271        0.4816080801
 H       -10.9592449876       -3.5286806980       -0.2126729101
 H        -6.9721576954       -4.3758835511       -0.0314716402
 H        -7.9682381212       -4.7392891845        1.5311236104
 H        -7.0280558140       -3.4710269718        1.3861502812
 H        -6.5216218570       -1.7342758726       -5.6971649731
 H        -6.0786575019       -0.3307225738       -6.4304893364
 H        -7.8542196115       -0.9506686231       -6.3975822041
 H        -5.5807319997       -1.0559653491       -2.7153702169
 H        -5.6918131833        0.5325067949       -2.8187294714
 H        -4.6470888314       -0.3320195697       -4.1617607324
 H        -9.6771672139        6.9883788464       -2.8157270595
 H       -11.1022029218        5.8586236528       -3.1050067381
 H        -9.9689292179        6.1519943612       -4.2633641098
 H        -7.1451221865        6.2326779978       -2.7840028250
 H        -7.8529497548        6.1220475408       -4.4463415020
 H        -6.9435929953        4.8445106142       -3.5961375986
 H        -8.4445230636        8.6660937327        3.0048496342
 H        -9.8714451789        9.8880683248        2.9997133513
 H        -8.5817079909       10.0984924935        1.7777487578
 H       -10.5307993793        6.8412802171        2.7833915954
 H       -11.9379027725        7.2342403642        1.5259269628
 H       -11.6814555399        8.1275720644        3.0087957401
 H       -12.3530164523       11.3841123362        4.5731845438
 H       -13.6627683402       12.0675463374        5.4706451783
 H       -13.5696799803       12.2353090289        3.7269882806
 H       -13.8435783114        9.8135708038        6.4442481144
 H       -12.8723357596        8.8080221739        5.2873850354
 H       -14.4363615255        8.5330604349        5.3327728265
 Na       -8.1750294102        1.4019785608       -1.0256843615
