117

 C       -16.5551950053        9.4847903463        3.8002834216
 C       -15.6095488420       10.6662677122        4.2143020713
 O       -16.1848241549       11.7589292549        4.2994055895
 C       -14.0524220644       10.5495236404        4.3948245196
 C       -13.5162926692        9.8306387213        2.9479020448
 O       -13.6400831223        8.6392465160        3.0071699140
 C       -13.0156881627       10.5144363272        1.7555880356
 C       -12.4996426603        9.8070158583        0.5591665230
 C       -10.8913605410        9.7569755584        0.6019756933
 O       -10.2813819635       10.4598746895       -0.1524592625
 C       -10.0067901361        8.6430658407        1.4900406448
 C        -9.1687477199        7.7945635149        0.4971853820
 O        -7.9735228506        8.0686442872        0.4582763958
 C        -9.8436191920        6.5790314831       -0.1408149393
 C        -8.5022485264        5.6780110146       -0.4760014015
 C        -8.8496598666        4.5270767390       -1.3365847030
 O        -9.3294491239        3.5416404104       -0.8081636164
 C        -8.7925758587        4.7822684572       -2.8967123386
 C        -9.2404184840        3.3741510148       -3.6518059151
 O        -9.9614576733        2.5145682965       -3.2205598778
 C        -8.9569957076        3.1990998155       -5.2770076571
 C        -8.2867332181        1.8084072657       -5.4861780137
 C        -7.4216749344        1.3030539818       -4.3442256685
 O        -7.2350352486        2.0232786021       -3.3441691345
 C        -6.9665741533       -0.2354749970       -4.2162267267
 C        -7.9659472789       -1.0768414595       -3.1931486089
 O        -8.7288401183       -0.7028296242       -2.3041069459
 C        -7.7483679358       -2.6008999703       -3.4252454969
 C        -7.5738761139       -3.3909851163       -2.0424637956
 C        -8.8368189439       -3.1802377494       -1.2018008705
 O        -9.9300723335       -3.1077883916       -1.7019314774
 C        -8.7289058337       -3.1152452458        0.3969730347
 C        -8.7732179541       -1.6259884692        0.5362028085
 O        -7.8316909768       -0.9715590618        0.1036417767
 C       -10.0265322710       -1.0073129792        1.3322153902
 C       -10.0646714646        0.4950081729        1.4342887952
 C        -8.8630121977        1.1685395245        2.1115652641
 O        -8.0210994400        1.6864333139        1.3254540909
 C        -8.5350487947        1.0837257308        3.5726523365
 C        -7.2743221157       -0.0541253149        3.4440912708
 O        -7.4727219317       -1.2075191865        3.8167538848
 C        -5.9609012040        0.3763928985        2.9614005861
 C        -7.9700433350        2.3598471557        4.0878871362
 C        -9.6666385483        0.4810451565        4.5766561917
 C        -9.9275701336       -3.8637218650        1.1277178358
 C        -7.3953001272       -3.8415314643        0.9702236798
 C        -6.9552058505       -0.7694089489       -5.6818686011
 C        -5.4726849204       -0.4266799753       -3.7273253825
 C       -10.0682465907        5.7212404496       -3.3749403149
 C        -7.4068722113        5.0609603525       -3.3130812586
 C        -9.2571998206        9.5968774358        2.4551985130
 C       -10.7877771487        7.7020603501        2.4831064478
 C       -13.4625163107       11.9600639359        4.6334007169
 C       -13.7070055263        9.7094573397        5.6419812142
 H       -16.1950005195        8.8992151242        3.0295355879
 H       -17.3950086231        9.8649288478        3.3114704446
 H       -16.8588485032        8.9112884703        4.6758167146
 H       -12.0731436102       10.8743358231        2.1944089296
 H       -13.6398512267       11.3930288056        1.4835564485
 H       -12.7052146210       10.3429989190       -0.3839550305
 H       -12.8252208476        8.6938532981        0.4267081921
 H       -10.5488341756        6.7688624232       -1.0008597166
 H       -10.5342974533        5.9714972327        0.5118655970
 H        -8.1566631439        5.3147483812        0.4555067430
 H        -7.7023180259        6.5384821848       -0.8873074051
 H        -8.4636229237        3.9349393681       -5.8354585344
 H       -10.0032078713        3.1103892557       -5.7212041816
 H        -7.8700406511        1.8372865340       -6.4174279130
 H        -8.9550108055        1.0707132592       -5.6944819679
 H        -7.0409681820       -2.9102185326       -4.1351226266
 H        -8.7021671753       -3.1137513187       -3.8043905938
 H        -6.6891227642       -2.8873692686       -1.5598213182
 H        -7.4547872276       -4.5042094407       -2.0450525376
 H        -9.7454824380       -1.3805318786        2.2832797157
 H       -10.9944717917       -1.4241838245        1.0542897073
 H       -10.9881053951        0.7890688728        1.9008544154
 H       -10.1694555820        0.9164484887        0.4423724452
 H        -6.0634250435        1.2774300444        2.3229271430
 H        -5.5283519804       -0.5471492055        2.5212295768
 H        -5.3685708385        0.5182548177        3.8396556954
 H        -7.7860190511        2.9890665513        3.2663122101
 H        -7.0721976992        2.2301748080        4.7679230093
 H        -8.8039275580        2.8020786729        4.6577316862
 H       -10.6044410148        0.9199169500        4.5999009158
 H        -9.3294140563        0.5062284766        5.6390143447
 H        -9.7780154673       -0.5335968291        4.2261943591
 H        -9.7196837800       -3.8041196366        2.2104019559
 H       -10.0288448094       -4.9059887175        0.6472053786
 H       -10.8166625151       -3.3032670201        0.8841261627
 H        -6.8817593963       -4.2308070620        0.1517402214
 H        -7.7405082752       -4.6564493575        1.6303056969
 H        -6.6023565298       -3.3384029870        1.6085157896
 H        -6.2178129403       -1.4276168617       -6.1033825909
 H        -6.9338258176       -0.0818284214       -6.4331144895
 H        -7.8444868013       -1.3253545720       -5.6514782018
 H        -5.1133215573       -1.3221545260       -4.3540507077
 H        -5.5405028721       -0.9087881774       -2.6928458576
 H        -4.8732739152        0.4199655240       -4.0154155307
 H        -9.6611636477        6.7237373971       -3.3516048768
 H       -10.9510426745        5.6778298757       -2.8118752854
 H       -10.3979725411        5.5324484268       -4.3901838902
 H        -7.0856888700        5.9953323249       -2.8416862507
 H        -7.3331513171        4.9254662765       -4.3907807108
 H        -6.5744558095        4.4348094542       -2.8497889894
 H        -8.4374621503        8.9045120751        2.7615585944
 H        -9.8135854596        9.9187736762        3.2480223402
 H        -9.0073057388       10.4112532762        1.8261038114
 H       -10.0862384985        6.8805106865        2.7600386413
 H       -11.7284330570        7.4465837183        2.2955965391
 H       -11.0500623533        8.2827509569        3.3441985798
 H       -13.0377720476       12.4382974786        3.7385966334
 H       -12.6724357436       11.9474226412        5.3700334147
 H       -14.2611867921       12.7089884212        4.9074479454
 H       -14.3796919961       10.0047685142        6.4694840997
 H       -12.7286397091        9.9152860760        6.1101171845
 H       -13.5957004587        8.5871442730        5.3373044359
 Na       -8.5512100409        1.2868063549       -1.2399159972
