117

 C       -16.4198216506        9.4723329306        3.7678259680
 C       -15.6017499124       10.7789595956        4.1424150656
 O       -16.1383023378       11.8083094894        4.4130424260
 C       -14.0496526058       10.6793730110        4.3328447406
 C       -13.5431883978        9.9187324371        3.1171466918
 O       -13.6873705986        8.7345946600        3.0246364039
 C       -12.8471357966       10.7991078019        1.7948146912
 C       -12.4079133513        9.7755416492        0.6806851354
 C       -10.8624745134        9.6013057572        0.5058424918
 O       -10.1960899565       10.3295499290       -0.2056163064
 C       -10.0516025642        8.8045131843        1.6035160011
 C        -9.1246761454        7.8832367428        0.7169226909
 O        -7.9446986231        8.2647867283        0.5677990576
 C        -9.6216281789        6.6844046880       -0.0418768814
 C        -8.4622084510        5.6558823764       -0.5780976305
 C        -9.0535694753        4.4429891201       -1.3437615492
 O        -9.4655489688        3.4664917857       -0.7230136712
 C        -8.7681886118        4.5167271357       -3.0092489874
 C        -9.2993214455        3.1638357845       -3.7354306157
 O       -10.0565791937        2.3411534760       -3.1757140347
 C        -8.8934793886        3.1122310407       -5.1953935056
 C        -8.3615233021        1.6699164335       -5.4103758863
 C        -7.5538663406        1.2351179623       -4.2435487363
 O        -7.1834391050        2.0173975607       -3.3920708243
 C        -7.1379309129       -0.3253911065       -4.2845045494
 C        -7.9067252516       -1.2246284322       -3.2471639911
 O        -8.7065581140       -0.7831537459       -2.4796569282
 C        -7.6347354761       -2.6820389808       -3.4360094553
 C        -7.7361913391       -3.6008143744       -2.0760496464
 C        -8.9049091578       -3.4061570505       -1.0990214520
 O       -10.0183223072       -3.1848188172       -1.4620014837
 C        -8.6330856963       -3.2797573091        0.4429879774
 C        -8.6865708474       -1.6306380782        0.6564875434
 O        -7.9152981381       -0.8671963224        0.0491737898
 C        -9.9485759146       -0.9711288624        1.3725995537
 C       -10.1041720387        0.4955181474        1.2691247530
 C        -8.9826108297        1.1915922127        1.9776439626
 O        -8.0330471593        1.6026850373        1.3023804782
 C        -8.5172483953        1.0465048902        3.4836922196
 C        -7.3725050574       -0.0248583021        3.5166484198
 O        -7.6141190450       -1.2052570921        3.7677513380
 C        -6.0098339277        0.3981690113        2.9391420026
 C        -7.8486342150        2.5359915577        3.9350799629
 C        -9.6464592307        0.6421360028        4.6003941644
 C        -9.7445683913       -3.9789680639        1.2279787170
 C        -7.2668761685       -3.6669177709        1.1404610664
 C        -7.1734122843       -0.9098013142       -5.6800037641
 C        -5.4440516894       -0.1979679271       -3.7294731905
 C        -9.7534346044        5.4598417291       -3.5600320457
 C        -7.3676156505        4.9816917516       -3.4125711815
 C        -9.1909094273        9.8715535633        2.3510597155
 C       -10.9016460127        7.7986205326        2.5939980636
 C       -13.4951108980       12.1134581761        4.4677619486
 C       -13.8345795191        9.8304353391        5.5491423826
 H       -15.8763775797        8.8405095515        3.1483343198
 H       -17.2619021452        9.5901499274        3.1672766615
 H       -16.6464562766        8.9387750370        4.6412027076
 H       -11.9834286900       11.5185409268        2.0559669965
 H       -13.6340197138       11.2794574179        1.4325811089
 H       -12.7282437307       10.0941631647       -0.3950618548
 H       -12.8633440306        8.8542257888        0.8585834451
 H       -10.1446774298        7.1246439121       -0.9320875762
 H       -10.4321696044        6.0759062943        0.3259965522
 H        -7.9617532463        5.1528120733        0.3067197345
 H        -7.7696244815        6.3358826415       -1.1131985794
 H        -8.1565125185        3.8488644710       -5.4654064441
 H        -9.7777141815        3.3593833346       -5.7717732321
 H        -7.6747182043        1.7340973596       -6.2801483480
 H        -8.9892059382        0.9510565375       -5.9189726018
 H        -6.7311620875       -2.9487315118       -3.9812344505
 H        -8.3474715508       -3.1866183722       -4.0736375208
 H        -6.9060809634       -3.2114995824       -1.4514892412
 H        -7.5486633057       -4.6835853738       -2.2997355288
 H        -9.9528774389       -1.2442978806        2.4172656538
 H       -10.8042151565       -1.4103093295        0.8344981575
 H       -10.9499897474        0.6798038479        1.7981382165
 H       -10.3402818749        0.8908597715        0.2519025328
 H        -6.1556198993        1.2254995771        2.2368326093
 H        -5.6151277755       -0.5154833360        2.5212555826
 H        -5.3440038709        0.6631755677        3.7572902460
 H        -7.5814529746        3.0277306741        3.0060651720
 H        -7.0007104310        2.3168804208        4.5354380410
 H        -8.4946461602        3.2184332491        4.4911030104
 H       -10.4406175506        1.3441146850        4.4850292256
 H        -9.3153744344        0.7553054952        5.5782139490
 H       -10.0319394140       -0.3742412918        4.4707349600
 H        -9.5668917110       -3.8875349970        2.2744312931
 H        -9.8497040544       -4.9870265948        0.8271605694
 H       -10.6262997219       -3.4016271407        0.9383411385
 H        -6.4668228161       -4.1198787104        0.4760725081
 H        -7.3839999534       -4.2552050729        2.0631047090
 H        -6.7796364986       -2.7680904697        1.4930517236
 H        -6.4869144534       -1.7314341879       -5.9029366828
 H        -6.7107223406       -0.2345466437       -6.3769035955
 H        -8.1366173361       -1.2448613830       -5.9460683110
 H        -4.7366795606       -0.6463030243       -4.4076589796
 H        -5.5317806420       -0.7642638659       -2.8649550186
 H        -5.2205647912        0.8584316748       -3.5800434625
 H        -9.2557474620        6.3843633739       -3.3913146104
 H       -10.7852712330        5.5607354031       -3.1026883781
 H        -9.9595020112        5.3996283510       -4.6660952498
 H        -7.2739010986        5.9769220137       -3.0964223598
 H        -6.9669058842        4.6408209827       -4.4853573409
 H        -6.6151484820        4.6394689150       -2.7326455946
 H        -8.5426286449        9.2227503503        2.7779564805
 H        -9.6932870012       10.5381892368        3.0891673706
 H        -8.7534541464       10.4052915227        1.5501075930
 H       -10.2506497931        6.9250417831        2.5677124974
 H       -11.9825313244        7.6132978751        2.4802001295
 H       -11.0672023842        8.1595597441        3.5939384764
 H       -13.7045728375       12.9695132033        3.7625704323
 H       -12.4176574881       12.0826521701        4.7596970169
 H       -14.0787483932       12.4521922869        5.3712165935
 H       -14.6722168869       10.0690444610        6.2810227918
 H       -12.9518783448       10.1375004690        6.2412152694
 H       -13.6584594044        8.8007675952        5.2433094007
 Na       -8.6808911904        1.3208917121       -1.2393777322
