117

 C       -16.4924866939        9.6871164328        3.8455355929
 C       -15.7960870922       11.0126680225        4.0847922920
 O       -16.3258840110       12.0741903681        4.2634491090
 C       -14.1627585677       11.0563179261        4.2640117032
 C       -13.4031284474       10.1780410382        3.0560582475
 O       -13.6683464246        9.0275481294        3.0167719890
 C       -12.5773976594       10.9118259046        1.9462201502
 C       -12.3693719454       10.0611732303        0.7309310487
 C       -10.7350644222        9.7475407138        0.4338943578
 O       -10.3309634744        9.6449756269       -0.7158135269
 C        -9.8745184395        9.0089330465        1.6132666370
 C        -8.8615832643        7.9688444968        0.8579026104
 O        -7.6201135187        8.1504361066        0.7716131110
 C        -9.6220176886        6.7981501228        0.1199018454
 C        -8.4920687771        5.9543313614       -0.7180072284
 C        -9.1159334177        4.6672457350       -1.3549794479
 O        -9.6756859001        3.8266076838       -0.6834937057
 C        -8.9232499651        4.4341189947       -3.0082447345
 C        -9.4214581109        3.1041865723       -3.5198852880
 O       -10.0051018059        2.2926730687       -2.8435681072
 C        -9.2022904158        2.6771612688       -5.1310101673
 C        -8.6827132644        1.3188171569       -5.4009811315
 C        -7.6768261749        0.7874863727       -4.3227181916
 O        -7.3962790252        1.3372647109       -3.2540237767
 C        -7.0728918770       -0.5734875475       -4.3387202601
 C        -7.9163404806       -1.4487283393       -3.2015273250
 O        -8.6131678218       -0.9016627930       -2.4385136477
 C        -7.7623411873       -2.9977897664       -3.3164664189
 C        -7.5941758793       -3.6934261515       -1.9065330444
 C        -8.8386863390       -3.5817933808       -0.9135259485
 O        -9.9660544259       -3.7141535077       -1.2922798980
 C        -8.3872716477       -3.1333915653        0.6842674883
 C        -8.9410694951       -1.5665325033        0.7069335988
 O        -8.2642343005       -0.7647837141        0.0437905775
 C       -10.1706176870       -1.0413535525        1.5799091617
 C       -10.2585040944        0.3994089009        1.3587600645
 C        -9.1025910899        1.2812208039        1.7809031813
 O        -8.4146785547        1.8478456467        0.8941989669
 C        -8.4046174892        1.3048692042        3.1675138671
 C        -7.4602600920        0.0760982274        3.3361632469
 O        -8.0143818569       -0.9817965588        3.6323082587
 C        -5.9059987821        0.0857449174        3.1840233949
 C        -7.5830179848        2.6727499126        3.4022313396
 C        -9.6644715392        1.2411033838        4.1972205409
 C        -9.1873531931       -4.1030458221        1.6811816362
 C        -6.9001774319       -3.1729920403        0.8830422163
 C        -6.9024907714       -1.3410586120       -5.6632544598
 C        -5.4940872966       -0.7797880255       -3.9510236965
 C        -9.4836532929        5.6468851135       -3.7018002010
 C        -7.3473894806        4.4112868244       -3.0772313148
 C        -9.0520605673       10.0426473310        2.4335956078
 C       -10.4768941346        8.0933453813        2.6664092025
 C       -13.6310979631       12.4249742952        4.4408899475
 C       -13.6897067377       10.2753792532        5.5718811516
 H       -16.1149710372        8.9410071552        3.1872311310
 H       -17.4931518520        9.9279183284        3.4128607762
 H       -16.6753189341        9.2763244374        4.9053750802
 H       -11.6111015330       11.0949226940        2.5246827640
 H       -13.0356071022       11.8208187835        1.7779905362
 H       -12.8468638644       10.3699191719       -0.2164844298
 H       -12.8877337348        9.0586743390        0.6917546656
 H       -10.4815119484        7.2302085780       -0.4328814123
 H       -10.1420885020        6.0276740488        0.7084949300
 H        -7.7348176618        5.6565551714       -0.0189679067
 H        -8.2029866736        6.7808118477       -1.4662978137
 H        -8.4479507421        3.3298424878       -5.5130295586
 H       -10.0836066674        2.9361286590       -5.8197324597
 H        -8.3546492112        1.1791673549       -6.3755963389
 H        -9.4529111874        0.6524959851       -5.5000811094
 H        -7.0947593905       -3.4511315996       -3.9998134768
 H        -8.6943724848       -3.3738130348       -3.8610026733
 H        -6.7898063609       -3.0800361332       -1.4764574773
 H        -7.2030332025       -4.7057153824       -2.0439193385
 H        -9.9808249876       -1.3335416895        2.5945215500
 H       -11.1050597649       -1.4572894027        1.1394635999
 H       -11.1001221416        0.7073879563        1.8734989731
 H       -10.4988231844        0.6136664597        0.2507531195
 H        -5.8423209480        0.2747151770        2.0781281841
 H        -5.4887074777       -0.9324781912        3.3209539041
 H        -5.4328179449        0.8699557429        3.7512809035
 H        -6.5973339619        2.7128781993        2.9600350841
 H        -7.6321848654        3.0463808596        4.4550232896
 H        -8.2185584600        3.4002879199        2.8361997469
 H       -10.4544383192        1.9314744368        3.9092547198
 H        -9.3076044711        1.4337878146        5.2354681083
 H        -9.9964601893        0.1615644371        4.2929696243
 H        -9.2127090460       -3.5458041268        2.6205146588
 H        -8.6099259418       -5.0589338719        1.9174385998
 H       -10.2069027640       -4.2344321389        1.2942602278
 H        -6.5809815965       -4.1406926893        1.2127319025
 H        -6.6051755157       -2.5596746407        1.7346693103
 H        -6.3152909241       -2.8461307955        0.0167827881
 H        -6.2960678207       -2.2936026494       -5.5390513900
 H        -6.1729164777       -0.7337563299       -6.2241393091
 H        -7.7429784466       -1.6067681349       -6.2692348027
 H        -5.0654774625        0.0007112742       -4.6750281606
 H        -5.1365740571       -1.8299540047       -4.1600191543
 H        -5.4280608339       -0.7159246049       -2.8415772688
 H        -9.9676662342        6.2947310702       -3.0562416465
 H       -10.3398691992        5.2562939694       -4.2610576894
 H        -8.8964639737        6.1533288359       -4.4578456074
 H        -6.7919351507        5.1913565557       -2.6620142355
 H        -6.9959677373        3.9805248154       -4.1330831187
 H        -7.0446357662        3.6203940773       -2.4210129540
 H        -8.6955835256        9.5307184520        3.3405901114
 H        -9.8391405897       10.7488446297        2.7584942508
 H        -8.2544873916       10.4476154218        1.7818207740
 H        -9.8145166208        7.7197831028        3.4588119926
 H       -10.8682948575        7.2345466379        2.2326501623
 H       -11.4256372715        8.4510512284        2.9644271993
 H       -14.4479013105       13.0079048523        4.7570890194
 H       -13.2954670771       12.8182698559        3.5495770726
 H       -12.8298383587       12.6520796260        5.1182624081
 H       -13.6687788566       10.7529268128        6.5347670538
 H       -12.6249692791       10.1113186325        5.3840565389
 H       -14.2023594286        9.3129771216        5.6827915153
 Na       -8.7772406929        1.1623744672       -1.2860601863
