117

 C       -16.4714270957        9.8091757652        4.0608047568
 C       -15.7143658808       11.2309029965        4.0746230910
 O       -16.2676387314       12.3079047299        3.9970733983
 C       -14.1987638495       11.2362870400        4.2780721265
 C       -13.4605158926       10.4198811744        3.0939295099
 O       -13.7739444491        9.2569403101        2.9506633386
 C       -12.3163584386       11.0327316947        2.1286059494
 C       -12.1848073113       10.2244507168        0.8378825174
 C       -10.7478796341        9.5070957478        0.4977873421
 O       -10.4663266319        9.3266920736       -0.6621115109
 C        -9.7801237901        8.8610280685        1.5215204379
 C        -8.7240216802        7.8295248711        0.8856804047
 O        -7.5294359845        7.8872788009        0.9653378006
 C        -9.4708751615        6.7057074728        0.1248742325
 C        -8.6262169287        6.1703815559       -1.0121529848
 C        -9.1565636542        4.8683245008       -1.4104079003
 O        -9.7589211503        4.0941468143       -0.7253811052
 C        -8.7650900984        4.3579448411       -2.9552941813
 C        -9.5164583457        2.9798265943       -3.3457001419
 O       -10.3705762022        2.4678846195       -2.6369446590
 C        -9.1659826297        2.5293035590       -4.7172116487
 C        -8.8845707831        1.0001459727       -4.9204793156
 C        -7.6078665259        0.5580589384       -4.2454110781
 O        -7.0384207390        1.0913520092       -3.2978284162
 C        -7.1111226673       -0.9231275343       -4.4395364674
 C        -7.9529046239       -1.8297772111       -3.4462806666
 O        -8.4987301049       -1.2701409332       -2.5513613353
 C        -8.1154737966       -3.5044208280       -3.2947868070
 C        -7.4529482409       -3.6759011375       -1.9047014914
 C        -8.5374593854       -3.7055300310       -0.7931899270
 O        -9.6908003326       -4.0440947587       -0.9770555389
 C        -8.3095479006       -3.0353514565        0.6871562978
 C        -8.8479851573       -1.5591517625        0.6644929926
 O        -8.2607549569       -0.7108238411        0.0633703985
 C       -10.1266403615       -1.1673097189        1.4834364640
 C       -10.3308569584        0.4531700392        1.3917717520
 C        -9.0511197095        1.3573266095        1.5944622834
 O        -8.6341903023        2.0682796877        0.6988480762
 C        -8.4975873686        1.5048530927        2.9878693847
 C        -7.6241492809        0.0353361287        3.3644366059
 O        -8.2428050650       -0.9773741537        3.6007263313
 C        -6.1511947839        0.1479429334        3.3294021593
 C        -7.5372870724        2.6803872346        2.9179825496
 C        -9.4140260264        1.6130697723        4.2419573098
 C        -9.0187376293       -3.9668542363        1.7489107071
 C        -6.7916526862       -2.7343758800        1.1064972830
 C        -7.2889183997       -1.4573292231       -5.8507109770
 C        -5.7438438890       -0.9702808512       -3.6380403715
 C        -9.2519280320        5.5767725742       -3.8814274683
 C        -7.2737122797        4.2466943918       -3.0056457100
 C        -8.8220524331       10.1475446164        1.8547267730
 C       -10.6047633499        8.3041205593        2.6537696294
 C       -13.7227819529       12.6604650859        4.3191013416
 C       -13.7553534162       10.4755076597        5.4886580981
 H       -15.9504725290        9.1873893224        3.3668270174
 H       -17.4943543099        9.8024079129        3.7926848195
 H       -16.4091976787        9.3225155818        5.0138134720
 H       -11.5067732513       11.0590091670        2.7822117865
 H       -12.6462190643       12.1759953551        1.9951919226
 H       -12.6734079999       10.5205435664       -0.0500503322
 H       -12.7712187851        9.3413559826        0.8862621678
 H       -10.4328092958        7.0674389140       -0.2722563693
 H        -9.8004282955        5.8417476685        0.7101509055
 H        -7.6105873276        5.9878088014       -0.5950765878
 H        -8.7402026820        7.0008209893       -1.7237684372
 H        -8.2696569791        3.0788111772       -5.0804811164
 H        -9.9263537706        2.9231954981       -5.3097971291
 H        -8.7422808421        0.7807946489       -6.0651796556
 H        -9.8603756413        0.3674109824       -4.8532773924
 H        -7.7694004574       -4.2718354976       -3.9969746632
 H        -9.1493083371       -3.6226156140       -3.4477530329
 H        -6.6774508336       -2.9049469803       -1.8047947985
 H        -6.8728301170       -4.6349223877       -1.8003318921
 H        -9.9778787469       -1.5686233935        2.5094674322
 H       -10.9573732121       -1.6331814648        0.9815756215
 H       -11.1571081606        0.7991528035        2.1353893232
 H       -10.6138212849        0.6714811255        0.4324263000
 H        -5.7561669013        0.0441958739        2.3419656849
 H        -5.8509426279       -0.7467456694        3.8582302999
 H        -5.8938408211        1.0958729838        3.8348389841
 H        -6.7241839699        2.5243008358        2.1919701970
 H        -7.0401041220        2.6891284809        3.9086367602
 H        -8.0197117765        3.6330908637        2.7879019705
 H       -10.1761899644        2.2851122305        3.9186319198
 H        -8.8513389272        2.0167032697        5.0727150232
 H        -9.8072503909        0.7251667025        4.5775884103
 H        -8.5543394019       -3.8917127076        2.7542931098
 H        -8.7286394438       -4.9238432481        1.3379348010
 H       -10.1175537825       -3.8968280391        1.7182221151
 H        -6.2612697700       -3.6779957788        1.2285269481
 H        -6.7657486901       -2.4078955965        2.1453537477
 H        -6.2908398819       -2.0562328921        0.3967645321
 H        -6.8832363517       -2.4098593793       -6.0549527034
 H        -7.0548386562       -0.6891465198       -6.6306545019
 H        -8.3837618660       -1.6081895492       -6.0395528918
 H        -5.1573765784       -0.1749929604       -3.9286045675
 H        -5.3782824009       -1.9111480844       -3.9875654846
 H        -5.9513251868       -1.1727173140       -2.6405137128
 H       -10.1495524985        6.1965811530       -3.5425475221
 H        -9.5960000237        5.2843725630       -4.8540083735
 H        -8.3958689836        6.2159026014       -4.0243210854
 H        -6.6311407105        5.0993574667       -2.5267894791
 H        -7.0310250971        4.2467674480       -4.0123386588
 H        -6.7965324725        3.2780533725       -2.6175683963
 H        -7.7992081907        9.8854384365        2.1380978105
 H        -9.3429033378       10.6127912277        2.5963774421
 H        -8.7800234757       10.6519242508        0.9375108624
 H       -10.0500735446        8.2867594668        3.6205252051
 H       -11.0784020300        7.3009578353        2.5762860953
 H       -11.4640825989        9.0095319986        2.8372166061
 H       -13.4925810413       13.1589788584        5.2835533605
 H       -14.4226863853       13.3803376280        3.7986200881
 H       -12.8882175914       12.7476706736        3.6226243190
 H       -14.2225523243       10.9962766397        6.4023968151
 H       -12.6607934788       10.4412334826        5.6644126491
 H       -14.3360471800        9.4976540856        5.5880079669
 Na       -8.8603774421        1.1640620920       -1.3408043453
