117

 C       -16.4050630152        9.9364632456        4.1711057275
 C       -15.6649852339       11.3371066989        3.9660502430
 O       -16.4328592395       12.2856727537        3.8658873993
 C       -14.0703624776       11.3529809723        4.2027817845
 C       -13.3958124122       10.5212539917        2.9805985032
 O       -13.8524318427        9.3649683311        2.8721108830
 C       -12.2620454290       11.0450729938        2.1190831091
 C       -12.1262565118       10.1861762577        0.9271730133
 C       -10.8687702814        9.4451828556        0.4103499638
 O       -10.6696155573        9.3152299470       -0.7860117643
 C        -9.7200697700        9.0144263371        1.5923799526
 C        -8.8550056258        7.8171222220        1.0161653788
 O        -7.5844349919        7.7806201406        1.0601803917
 C        -9.4430652383        6.6151468176        0.1551953640
 C        -8.5980208347        6.1993927437       -1.0488030626
 C        -9.1026939526        4.8593816908       -1.5090611025
 O        -9.7844881210        4.1667049995       -0.7791247727
 C        -8.6707957894        4.3756541942       -3.0211770158
 C        -9.5306401490        3.0616670799       -3.3306581404
 O       -10.3348444583        2.5524662670       -2.6125691534
 C        -9.1065254142        2.4194952181       -4.7591753265
 C        -8.9562074270        0.9063016712       -4.7185723668
 C        -7.7217430853        0.3833623623       -4.0382360567
 O        -7.0790802427        1.1718885745       -3.3357817284
 C        -7.2285886894       -1.1781203005       -4.2728458722
 C        -8.1529600521       -1.8481975063       -3.3085699759
 O        -8.8599819641       -1.3218387959       -2.4436749949
 C        -8.0191594592       -3.4500784374       -3.1975220469
 C        -7.3945360131       -3.8469402218       -1.7972556493
 C        -8.4793070545       -3.6677252472       -0.6803059875
 O        -9.5644403580       -4.1859755494       -0.8241295795
 C        -8.1847627675       -3.0056220924        0.7183712217
 C        -8.8183929910       -1.4495297694        0.6147445280
 O        -8.1758047586       -0.6535824997       -0.0450065804
 C       -10.1150268535       -1.0837721363        1.3020212413
 C       -10.3897646942        0.3647237963        1.4656392363
 C        -9.2304972232        1.3157910179        1.6640098417
 O        -8.7830718108        1.9318401016        0.6577412410
 C        -8.3391098825        1.4812840073        2.9953533654
 C        -7.6405859874        0.1697107588        3.2987422998
 O        -8.3648006240       -0.7937022804        3.5963453695
 C        -6.1298370233        0.1544801752        3.4416178408
 C        -7.3782717779        2.7207121707        2.8337688483
 C        -9.4701366266        1.7615954645        4.1358142822
 C        -8.9893979582       -3.8565243255        1.7095566416
 C        -6.6674053366       -2.7541596671        1.1187180499
 C        -7.2968577122       -1.4145457409       -5.8486337985
 C        -5.6722492850       -1.3371892999       -3.9284103771
 C        -9.2737387387        5.3450979926       -4.0238145418
 C        -7.2201622576        4.1342855419       -2.9350241996
 C        -8.7856144400       10.1778931258        1.8451276185
 C       -10.3898797826        8.4316741923        2.8636956543
 C       -13.5164039353       12.7876682005        4.2725997366
 C       -13.8269719992       10.6081664778        5.5613695844
 H       -15.9849157899        9.2037312479        3.5225640406
 H       -17.5303401524        9.9662511093        3.9955776391
 H       -16.2692143211        9.5006924859        5.2560637020
 H       -11.4502612929       11.1192332661        2.8310997092
 H       -12.4690457780       12.1024861712        1.8462364138
 H       -12.3270836536       10.7463686843        0.0960521328
 H       -12.9743347429        9.5177558907        0.6430943202
 H       -10.4767129071        6.7159302472       -0.0817005873
 H        -9.4042856226        5.7292034128        0.7911968467
 H        -7.6486793885        6.2147083156       -0.6796318280
 H        -8.8449645848        7.1192882245       -1.7352883095
 H        -8.2356631980        2.8907131547       -5.1927503550
 H        -9.9476601415        2.6920827011       -5.4548338343
 H        -9.1470659898        0.3570363444       -5.7424881839
 H        -9.9430601534        0.4716265315       -4.2117233438
 H        -7.3688425678       -3.8191291254       -4.0001674399
 H        -8.9414410267       -4.0275077615       -3.4842356949
 H        -6.4414566540       -3.3418922632       -1.6702150929
 H        -7.1381509567       -4.8893138140       -1.7391930871
 H       -10.0293351485       -1.5227571563        2.3238435147
 H       -10.9956990150       -1.4739006451        0.7477401362
 H       -10.9888688024        0.3557940487        2.4145722821
 H       -11.0049544326        0.7618639340        0.5975610846
 H        -5.8311479123        0.1905257594        2.3997087453
 H        -5.8218410020       -0.8433249408        3.7476215315
 H        -5.7962266156        0.9694849935        4.0140112867
 H        -6.8689467309        2.8718659232        1.9498371652
 H        -6.6178343482        2.6174580896        3.6380222057
 H        -7.9469276203        3.5683742713        3.1593726731
 H        -9.9792494304        2.5595128230        3.6872562821
 H        -9.0909413024        1.9493122289        5.1614007592
 H       -10.1788014459        0.9415883774        4.2300716610
 H        -8.8206450906       -3.7080493783        2.7485631227
 H        -8.8922112466       -4.9041076135        1.3909100416
 H        -9.9712570004       -3.6036240622        1.4522074101
 H        -6.0858969610       -3.5503494568        0.7865590596
 H        -6.5339618079       -2.8600979439        2.2074255982
 H        -6.2754056464       -1.7733059620        0.7129169146
 H        -6.9453968343       -2.4767734814       -5.9808799789
 H        -6.8287219660       -0.6051001639       -6.4590612629
 H        -8.3206436849       -1.5139041412       -6.3204190578
 H        -5.2567592184       -0.7859756853       -4.7299408649
 H        -5.4696489590       -2.3267880827       -4.1350665207
 H        -5.4027704625       -1.1272065193       -2.9596335497
 H       -10.3863976423        5.3486456511       -4.0255616953
 H        -9.0473409681        5.0024188124       -5.0500073792
 H        -8.8904730683        6.4067399108       -3.8803048698
 H        -6.7369269432        4.9602148077       -2.5081900969
 H        -6.6888034455        4.0788890103       -3.9324553928
 H        -6.9513516358        3.2544606662       -2.3830219566
 H        -7.7522488744        9.7785798441        1.9730249387
 H        -9.1229576176       10.6622669867        2.7135248360
 H        -8.7522379216       10.7237550914        0.9169029653
 H        -9.4925178568        8.1987081731        3.6131621552
 H       -10.8053760504        7.4694836631        2.6965336999
 H       -11.1152543892        9.0500344018        3.4900728998
 H       -13.0648653257       13.0858946863        5.2564017091
 H       -14.2791710452       13.5754392141        4.1221744529
 H       -12.7951716391       13.0222101746        3.4175919006
 H       -14.5581427518       10.8573411744        6.3037064686
 H       -12.8432273293       10.8412351602        5.9309912946
 H       -14.0371236432        9.5023771611        5.4933616389
 Na       -8.8589789163        1.1149400073       -1.4577138898
