117

 C       -15.7099454415       -1.7393345302        1.4500550952
 C       -14.2735089441       -2.1830974803        1.4230110592
 O       -13.6099526607       -2.2921884028        2.4524068660
 C       -13.5705916772       -2.5495661576        0.0442495953
 C       -12.3467225746       -1.7165455763        0.0503292128
 O       -12.4095474987       -0.5790363194       -0.4440822620
 C       -11.1316798979       -2.1470851772        0.8018812162
 C        -9.9468213893       -1.1923705811        0.5209425760
 C        -8.7175179630       -1.7247925648        1.2196843188
 O        -8.4862262573       -2.9473751225        1.2933795510
 C        -7.5795339111       -0.7271936142        1.6762946678
 C        -8.1780055624        0.4368795502        2.5178443239
 O        -9.2427501842        0.9029587831        2.1650786478
 C        -7.2575340558        1.2668338517        3.4175319221
 C        -8.0170991960        2.3901637101        4.0160882688
 C        -8.7549281227        3.4225588072        3.1134601875
 O        -8.0893345421        3.8884557738        2.2259405478
 C       -10.1892510657        3.8362133906        3.4730772570
 C       -10.9352613204        4.4533302604        2.1938863782
 O       -10.5373198908        5.5885947554        1.7515386947
 C       -12.2191790762        3.7612738470        1.6521658064
 C       -12.1461588602        3.6797577708        0.1184653407
 C       -10.8117171154        3.0903015979       -0.3376268811
 O        -9.8987030122        2.9765273527        0.4455705934
 C       -10.6018634668        2.9467410105       -1.8510430112
 C        -9.9630810412        4.3207482586       -2.2587079855
 O        -8.8557253396        4.6019394934       -1.8230887856
 C       -10.6194510629        5.2763527083       -3.2683036133
 C        -9.6500459099        6.3678841765       -3.6288370239
 C       -10.2544050793        7.5374996883       -4.4913320559
 O       -11.3869532465        7.5065723823       -4.8401234461
 C        -9.4048905612        8.8605016837       -4.5081851391
 C        -8.8925817689        9.2154890827       -3.1111428462
 O        -7.6987055072        9.2505748888       -2.8240533492
 C        -9.9374870849        9.6363953353       -1.9595697278
 C        -9.1708425863        9.9637879016       -0.7050555565
 C        -8.5936534069        8.5239600695       -0.1557329420
 O        -9.1306375934        7.5204434299       -0.5107332582
 C        -7.1855095845        8.4693635329        0.6873634080
 C        -6.2011679784        7.7556418178       -0.3209784459
 O        -6.4452030536        6.5939550037       -0.5476168171
 C        -4.9544097330        8.5404958718       -0.9286986926
 C        -6.7798122698        9.9448794309        0.9650589010
 C        -7.3749658833        7.5095859280        2.0365817353
 C        -8.1458666371        8.5311371069       -5.3849141637
 C       -10.2807358878       10.0287168897       -5.1831707961
 C        -9.5018068077        1.8635949820       -2.0986522022
 C       -12.0078948148        2.6996376683       -2.5695386959
 C       -10.9572626171        2.5376144945        4.1715328578
 C       -10.0985129187        5.1083888545        4.4413971984
 C        -6.4495571582       -1.6132523859        2.2896090199
 C        -7.0057463666       -0.0200266733        0.3780302001
 C       -13.2887015446       -4.1459372498        0.2700205064
 C       -14.5167094391       -2.2122108968       -1.2093878936
 H       -16.4568790071       -2.3373978792        0.8878381995
 H       -15.8800146984       -0.7579134479        0.9477997048
 H       -15.9957004897       -1.7428645374        2.5159365011
 H       -10.8568580708       -3.2088065287        0.5515082972
 H       -11.3481408823       -2.2303811698        1.8647165062
 H       -10.3215917317       -0.1741427579        0.6881296161
 H        -9.8355099564       -1.3213831248       -0.5981709895
 H        -6.4861016650        1.6860031130        2.7949593895
 H        -6.6066330743        0.6926718603        4.0593245082
 H        -7.3114306748        3.0590267233        4.5925179108
 H        -8.6033573137        1.9692086436        4.7924879495
 H       -13.1588692506        4.3206383372        2.0534201184
 H       -12.2664978307        2.7661274137        2.1145152125
 H       -12.1914858521        4.6778130742       -0.3381595903
 H       -13.0514935496        3.0466185188       -0.1776268419
 H       -11.6107916761        5.6334194894       -2.9551877988
 H       -10.8737959214        4.6186245322       -4.1569019149
 H        -8.8356204599        5.9275097602       -4.3253753450
 H        -9.1221352141        6.6973122614       -2.6690531711
 H       -10.6562573872        8.8572699058       -1.8440214098
 H       -10.5324269203       10.5107747228       -2.2667393931
 H        -9.8160570889       10.4641297768        0.1196991881
 H        -8.4814980060       10.7385216511       -1.0657029417
 H        -5.2166303654        9.5809954841       -1.2263003162
 H        -4.3014479015        8.0505808003       -1.6480558867
 H        -4.3545068181        8.7423879796       -0.0007824447
 H        -7.6598644620       10.4716215858        1.3639908721
 H        -6.4111759332       10.5613121550        0.1594946322
 H        -5.8839656552       10.0548526126        1.6551263576
 H        -8.4162865447        7.2170929608        2.1652434094
 H        -7.0892307500        8.1796747312        2.7998402277
 H        -6.7366808007        6.5748617335        1.9450012667
 H        -8.4844989824        8.2974405928       -6.4110558718
 H        -7.6102281744        7.6843255501       -4.9879764245
 H        -7.4597085565        9.3177772139       -5.5473657248
 H       -10.9743095736        9.3758043646       -5.7461024574
 H        -9.6523384227       10.7214834510       -5.8207735553
 H       -10.9896999925       10.6898704646       -4.6012044928
 H        -9.8430307865        0.8719210536       -1.9059065689
 H        -8.5743815003        2.0038358180       -1.5397220350
 H        -9.2427348153        1.9789075672       -3.1262613934
 H       -12.7238725881        3.4640095180       -2.1682927711
 H       -12.5535340352        1.8078221610       -2.3119175630
 H       -11.9957114427        2.7367524036       -3.6802761569
 H       -10.6994794701        1.6197546991        3.5733064853
 H       -11.9791748885        2.7258049059        4.1493450685
 H       -10.6783405800        2.4701451382        5.2401130790
 H        -9.2880668990        5.7018204612        4.0274081804
 H        -9.9238270263        4.8071369958        5.4800664143
 H       -10.9943615288        5.7043889046        4.2229162786
 H        -6.5536495506       -2.6221346133        1.8626576521
 H        -6.6132186082       -1.7470587868        3.3554122065
 H        -5.4029983546       -1.2775156346        2.0879427343
 H        -7.7280924628        0.4335453766       -0.2964088711
 H        -6.2537922514       -0.6107827726       -0.1762608332
 H        -6.4370087694        0.8868679191        0.6928506723
 H       -12.9257815908       -4.3966277318        1.2219237250
 H       -12.6918599975       -4.7725960615       -0.3187697848
 H       -14.2273174884       -4.7469117966        0.1816797891
 H       -14.4691583071       -1.1528656659       -1.4497300788
 H       -15.6113830297       -2.2325563737       -1.1274740208
 H       -14.2148816427       -2.8754349192       -1.9989889330
 Na       -8.4692502226        5.2821188800        0.2990431176
