117

 C       -16.3653736993       11.2914997107        4.6180208672
 C       -15.4035768343       11.9556179095        3.6497050620
 O       -15.7678233017       12.7516056150        2.8399065264
 C       -13.9138494162       11.7950721485        4.0144339726
 C       -13.3264331662       10.7697430910        2.9498141543
 O       -13.7088246886        9.6159868255        3.2176373506
 C       -12.4077546930       11.1229482050        1.6769727362
 C       -12.1951560837        9.8118529795        0.8817046929
 C       -10.7090398866        9.3360395642        0.3967699888
 O       -10.5953656923        9.0920915704       -0.8115689911
 C        -9.6277843370        9.2115258027        1.3499331178
 C        -8.7671805632        7.8591149301        0.8659402888
 O        -7.5461588016        7.7440949759        1.0836016875
 C        -9.6605906628        6.6454434008        0.4119235051
 C        -9.3482011103        6.1901010678       -1.0673901856
 C        -9.4149191810        4.6191989652       -1.5712104884
 O        -9.8269611646        3.8005863827       -0.7745017210
 C        -8.7190852791        4.3050351955       -3.0292952210
 C        -9.1618045020        2.8898515727       -3.4636894265
 O        -9.8646366353        2.2538385513       -2.7561622255
 C        -8.5881557057        2.4536762992       -4.8317867167
 C        -8.8922890961        0.8809103848       -5.2364346016
 C        -8.1708462544       -0.0258240456       -4.1962539876
 O        -7.6142049462        0.4554436811       -3.1805635856
 C        -7.9950406356       -1.5754695530       -4.3779204675
 C        -8.7673763312       -2.3785757438       -3.1514611834
 O        -9.4230983898       -1.8426030147       -2.2528646516
 C        -8.3494224510       -3.8276177709       -2.6879493044
 C        -7.5021199004       -3.9279331575       -1.4029436453
 C        -8.2243056794       -3.8983848612        0.0244295786
 O        -9.1808429504       -4.6039183742        0.1532239704
 C        -7.8585562909       -2.9128530191        1.3009469836
 C        -8.3007758745       -1.5327065013        0.6003831947
 O        -7.5580444147       -0.8554647590       -0.1109604059
 C        -9.8313959878       -1.1652831101        0.6718034015
 C        -9.9921073390        0.0636009918        1.5610024119
 C        -8.9519991940        1.1182756683        1.3698858702
 O        -8.5268617838        1.5783301101        0.2746007676
 C        -8.4408746984        1.7560395271        2.7249430122
 C        -7.8599898866        0.5780719685        3.6576289146
 O        -8.5198459454       -0.3906429677        4.0629410878
 C        -6.4316357640        0.7452606032        4.0681959105
 C        -7.3244002345        2.7506597094        2.4353690979
 C        -9.6699820496        2.3569730780        3.3417282530
 C        -8.6513376656       -3.1277284216        2.5791961251
 C        -6.3607232442       -2.8917793841        1.5538459373
 C        -8.6439711576       -2.1587670055       -5.7320503749
 C        -6.4815683540       -1.7469344249       -4.0522080100
 C        -9.1883795068        5.3714048141       -4.0491049749
 C        -7.1477173177        4.3765382656       -2.6866962331
 C        -8.6786865950       10.4253171496        1.3438400245
 C       -10.1260679408        8.7233974947        2.7724929114
 C       -13.2107244185       13.2792597961        3.7993339726
 C       -13.6046626425       11.4094330223        5.4505448592
 H       -16.0051076088       10.3242332201        4.8292063572
 H       -17.3788598371       11.4254421838        4.3229273116
 H       -16.3063836536       11.8043020648        5.5909426196
 H       -11.5076248966       11.5053544568        2.2265792189
 H       -12.8496816467       12.0018327019        1.0745083509
 H       -12.8136271627        9.6395017169        0.0870340395
 H       -12.7538619175        9.0320778361        1.5504428712
 H       -10.7273009663        6.7608870338        0.2744191089
 H        -9.3052315088        5.7821729270        0.9995274536
 H        -8.3618195578        6.4835612996       -1.3599059210
 H        -9.9515255584        6.7138207474       -1.9740953979
 H        -7.5157032580        2.7160283329       -4.8521033534
 H        -9.1527876781        3.1585419787       -5.4421114625
 H        -8.3642738507        0.5458158270       -6.0838268405
 H        -9.9539915657        0.6625853387       -5.2423541556
 H        -7.6167849921       -4.2506543439       -3.3867563477
 H        -9.3137380692       -4.4036131615       -2.7452137237
 H        -6.6956093833       -3.1706423355       -1.5189704822
 H        -6.9801893230       -4.8954810267       -1.6437511838
 H       -10.5467934976       -1.9334999458        1.0082747448
 H       -10.1920863405       -0.9055739370       -0.3256115207
 H       -10.1823924047       -0.2188196721        2.5705807597
 H       -10.8972658200        0.4791133311        1.1493216986
 H        -6.5533016589        1.4555932029        4.9074520261
 H        -5.8643453492        1.1530808865        3.2127486108
 H        -6.0403788418       -0.1806104851        4.4236661049
 H        -6.5203896116        2.4087273381        1.8452727143
 H        -6.8918588990        3.1012149232        3.4339697904
 H        -7.6642241356        3.6474442789        1.9170784957
 H       -10.1903124490        3.0138686496        2.6368209099
 H        -9.3838845753        3.0050643010        4.2231047793
 H       -10.3797788468        1.5214110066        3.5390023811
 H        -8.5063342823       -2.3271671292        3.3225449875
 H        -8.1596940495       -4.0366336256        3.1158314030
 H        -9.6846769423       -3.3693130505        2.4181184291
 H        -6.1150018971       -3.8905296548        1.5917211660
 H        -6.1131790844       -2.3043024878        2.4509051422
 H        -5.8343662831       -2.4468018907        0.6662867145
 H        -9.1360619818       -3.1521569416       -5.5490517262
 H        -7.8699752366       -2.2170450156       -6.5170707731
 H        -9.4761251392       -1.5144027093       -6.0643734961
 H        -5.7092780199       -1.2296560482       -4.7554005033
 H        -6.2864985603       -2.8397413114       -4.0748352699
 H        -6.3951326595       -1.0811625241       -3.1508759044
 H        -8.3921011522        5.4366744545       -4.8089451674
 H        -9.3836885742        6.3460741542       -3.6340111012
 H       -10.0646016052        4.9745975103       -4.5834891743
 H        -7.0814010218        5.1679392075       -1.9393600613
 H        -6.4859020660        4.7233193928       -3.6919197091
 H        -6.8173787881        3.4240892157       -2.1822952781
 H        -7.6851144457       10.0101367479        1.7276896416
 H        -9.1189190561       11.2213202478        1.9692108104
 H        -8.7480137115       10.8962241416        0.3397002859
 H        -9.2822782125        8.3517041124        3.4128744186
 H       -10.8131399733        7.9665895173        2.8003319698
 H       -10.5045720201        9.5354909514        3.3945794160
 H       -13.6927827508       13.6990367330        2.9345706148
 H       -12.1568650904       13.2291395455        3.7259493659
 H       -13.3965486141       13.9719183710        4.6166605837
 H       -14.1287545404       11.9323723680        6.2150206874
 H       -12.6468642231       11.8118683404        5.7030494781
 H       -13.5122694430       10.3689349146        5.7441752156
 Na       -9.0979976235        0.4302917554       -1.6179131659
