117

 C       -16.4898996512       11.5058943949        4.5691725285
 C       -15.4504647202       12.2138407142        3.6721386384
 O       -15.6567364548       12.8097944074        2.6827297445
 C       -13.8106408867       11.8656803883        3.9873584521
 C       -13.3355259674       10.7342263156        3.0154034510
 O       -13.5381466557        9.5707192578        3.2738246044
 C       -12.4462416401       10.9642335656        1.7017930090
 C       -12.1775888962        9.6559361414        0.8992752014
 C       -10.7615265182        9.4406017978        0.2520096739
 O       -10.6647625594        9.2299369063       -0.9339152452
 C        -9.5764153809        9.0669887626        1.2879535700
 C        -8.7936959238        7.7742555542        0.8713476365
 O        -7.6092660682        7.6959419572        0.8502274472
 C        -9.6635947850        6.5512177990        0.3952174430
 C        -9.3736417449        6.0853372517       -1.0616117144
 C        -9.3745014905        4.5441531843       -1.4269317806
 O        -9.9301645971        3.6774529833       -0.8367251437
 C        -8.7256434390        4.3669074787       -2.8541244847
 C        -8.9932407244        2.8737380403       -3.4639056585
 O        -9.8015255135        2.1656967624       -2.9147199503
 C        -8.4424721163        2.3569563911       -4.8852316110
 C        -8.8635401213        0.8930349871       -5.1099756994
 C        -8.1161755475        0.0131265565       -4.1539271491
 O        -7.4952143689        0.5595749606       -3.2381116549
 C        -8.1074288482       -1.5723716602       -4.2130758438
 C        -8.7785445510       -2.3371968406       -2.8753634661
 O        -9.6285497219       -1.7864899974       -2.2045692764
 C        -8.4643681280       -3.8045485533       -2.7420559893
 C        -7.5636935340       -3.7840066021       -1.3287278896
 C        -8.4249773665       -3.9016286481        0.0032156536
 O        -9.1610964307       -4.8061022733        0.2759104265
 C        -7.8612082328       -2.9024165780        1.2290397283
 C        -8.3363803284       -1.5744633178        0.5860215883
 O        -7.5614406637       -0.9003234389       -0.0576941841
 C        -9.8237158398       -1.1580668835        0.6095712082
 C       -10.0869786711        0.0286449329        1.5496214816
 C        -8.9463562548        1.0616848157        1.3763576186
 O        -8.4977735725        1.4653214182        0.3497079722
 C        -8.4157373338        1.8196019155        2.7294920166
 C        -7.8302613240        0.7113648013        3.7206217167
 O        -8.5209493774       -0.1620834390        4.1230726120
 C        -6.3325674104        0.9245262784        4.3421378574
 C        -7.3760529449        2.8277507018        2.3675866832
 C        -9.6920042577        2.4185858861        3.3959297474
 C        -8.5293654607       -3.2253297890        2.5626456110
 C        -6.2793642621       -2.9496469745        1.4649090423
 C        -8.7455235724       -2.1612941964       -5.5105351763
 C        -6.5177868929       -1.9005739027       -4.4580582638
 C        -9.2910014205        5.2249744390       -3.9852811229
 C        -7.1521568278        4.3784727793       -2.6214862265
 C        -8.7911332492       10.4950981287        1.3778099253
 C       -10.1341766753        8.8093262924        2.7522081459
 C       -13.0704631671       13.2604253220        3.5898739482
 C       -13.3435109865       11.5531260414        5.4027919115
 H       -16.0621711992       10.5483292170        4.8780866790
 H       -17.2676614245       11.3823505327        3.9034343521
 H       -16.8302260138       11.9382821478        5.3853505546
 H       -11.5272094672       11.5515730036        2.0603189753
 H       -12.9173031236       11.5432991120        1.0431240643
 H       -12.9120468060        9.4927516803        0.1233366358
 H       -12.3745910136        8.8059930644        1.5284570894
 H       -10.7339263367        6.6335139063        0.2397893335
 H        -9.3533283536        5.6757139338        1.0488223568
 H        -8.3782930712        6.4222494840       -1.4190302554
 H        -9.9790517802        6.4747407390       -1.8311525854
 H        -7.4114853904        2.4236506891       -4.9078311746
 H        -8.9024737567        3.0324144489       -5.6146748595
 H        -8.5947810262        0.4796316991       -6.1308266905
 H        -9.9476854429        0.6434343698       -4.7109589345
 H        -7.8168642932       -4.0043453928       -3.5285883231
 H        -9.2033387791       -4.6054710657       -2.5604613334
 H        -6.9895018754       -2.8000490721       -1.2488577442
 H        -6.8433595713       -4.6116923582       -1.5670247854
 H       -10.3739475416       -1.9238295628        1.1044753914
 H       -10.2334470049       -1.1307729586       -0.3941950658
 H        -9.9622066445       -0.4556634373        2.4639166602
 H       -11.2096686091        0.3780981697        1.5167437481
 H        -6.3558465311        1.4314925182        5.3373650131
 H        -5.6397440726        1.3299041294        3.5925731954
 H        -6.0275530332       -0.1047510171        4.5026172229
 H        -6.4363710326        2.3641173467        1.9737720829
 H        -7.1076436433        3.2190063805        3.3510286615
 H        -7.5319641218        3.6817616809        1.6491271658
 H       -10.2858405370        2.9804389563        2.6409465522
 H        -9.4169010380        3.1144941039        4.1533864894
 H       -10.3294408254        1.5424933754        3.7277443714
 H        -8.9274543563       -2.3430851822        3.1280136800
 H        -7.8435632736       -3.6506760738        3.3032726552
 H        -9.3807499011       -3.9632807536        2.3466405183
 H        -6.0883547200       -4.0457560623        1.4091603448
 H        -6.2354233302       -2.5601259240        2.4575622342
 H        -5.5869002536       -2.4138125296        0.8353763605
 H        -9.1672613039       -3.1364344574       -5.3622237838
 H        -7.7905207218       -2.3669627545       -5.9899102753
 H        -9.4665726436       -1.6397684640       -6.0501805209
 H        -6.0980601912       -1.3215256726       -5.2978571669
 H        -6.4106789007       -2.9689291914       -4.7176068975
 H        -6.0174377869       -1.3274506948       -3.6301575940
 H        -8.6966505478        5.0813920101       -4.8176974094
 H        -9.2587233603        6.2935213524       -3.6902369619
 H       -10.3007840958        4.9407978041       -4.2207128202
 H        -6.8532441782        5.2971934655       -2.0486833277
 H        -6.6516529963        4.3185238078       -3.5976845834
 H        -6.9291600357        3.5172504875       -1.9257183735
 H        -7.7768101439       10.4159683607        1.5672435539
 H        -9.3785101724       10.9609248571        2.2248409951
 H        -9.1431940722       11.1887495020        0.6237442377
 H        -9.3370843863        8.6960297848        3.4442288538
 H       -10.7884374712        7.8903373190        3.0169621685
 H       -10.7293085181        9.6340806138        3.1298329347
 H       -13.7443520437       13.8651203977        3.0209605724
 H       -12.1720539487       13.0968106485        3.0925875764
 H       -12.7648257197       13.7737635719        4.4581815767
 H       -13.7469736313       12.2444363956        6.1793607850
 H       -12.2576976359       11.6934877248        5.7620916976
 H       -13.5564315050       10.5421080756        5.6349711703
 Na       -9.1324722518        0.4500220638       -1.6173345732
