117

 C       -16.0539778018       11.9424849939        4.3134157700
 C       -15.0013842487       12.4857277512        3.3495119230
 O       -15.2898752842       12.9538809702        2.3274385736
 C       -13.5035063708       12.1150477244        3.6897677959
 C       -13.2397266043       10.6292104954        3.0149215519
 O       -13.3128255811        9.5498241362        3.5892018985
 C       -12.6604716346       10.7192204137        1.5715337364
 C       -12.5394263482        9.2949317527        0.9315817451
 C       -11.0873721962        9.2236432635        0.2580045744
 O       -10.7730789791        9.6338640643       -0.8288563141
 C        -9.8403122149        8.8097686091        1.1551956352
 C        -9.0199375141        7.6912046490        0.6023586026
 O        -7.9181766819        7.8684007404        0.1440743678
 C        -9.6773055368        6.3145988524        0.4166673896
 C        -9.3207552773        5.9786573038       -1.0405597126
 C        -9.5003468447        4.4932360655       -1.5014253768
 O        -9.9094801804        3.6567495434       -0.7480679828
 C        -8.7901739008        4.2052979515       -2.9320883676
 C        -9.1291894296        2.7232874635       -3.3830824172
 O        -9.9888611738        2.1687926967       -2.7841741527
 C        -8.3477154866        2.3397020493       -4.6293862340
 C        -8.4494874828        0.8169182394       -5.1610438228
 C        -7.8946343817       -0.1959490683       -4.1577213400
 O        -7.1210926799        0.0947330787       -3.2119291779
 C        -8.3031477739       -1.6621395968       -4.2866243952
 C        -8.8603390642       -2.1353414362       -2.9018446282
 O        -9.6452476165       -1.4194849708       -2.2660166593
 C        -8.7002486493       -3.6090840888       -2.5055483497
 C        -7.5833306752       -4.0175787030       -1.4880523781
 C        -8.1542205041       -4.0862396322        0.0168216546
 O        -9.0030139490       -4.9297686757        0.1223317042
 C        -7.8550243117       -3.0567620384        1.1617457874
 C        -8.4991204693       -1.8064368843        0.6093090174
 O        -7.9069180008       -1.2360400264       -0.2617152192
 C        -9.8300987247       -1.1323464346        1.0545275567
 C        -9.9279074952       -0.0160620203        2.0219010601
 C        -8.9955288719        1.1708424086        1.6719460133
 O        -8.5304976640        1.4899167479        0.6041959195
 C        -8.4800281866        2.1030591237        2.9546678886
 C        -7.8291478603        1.1389872554        3.9875546149
 O        -8.4154253814        0.1704701007        4.4066650354
 C        -6.4611308879        1.5036326140        4.5923592803
 C        -7.4900971072        3.1332321317        2.4197494574
 C        -9.6671293421        2.8422287251        3.7155122786
 C        -8.3747502440       -3.5642819464        2.5300436161
 C        -6.3028286007       -2.9999181338        1.4340718836
 C        -9.3863720887       -1.9029279782       -5.2438200383
 C        -6.9046662188       -2.5483177114       -4.6448111328
 C        -9.2855336097        5.2714128374       -3.8976814584
 C        -7.2280731406        4.3203421078       -2.7013611290
 C        -8.8579514411       10.0913825398        1.0831873960
 C       -10.2229247577        8.4433973047        2.6804997089
 C       -12.5050451715       13.1926952781        3.0441560361
 C       -13.2345463679       11.9737489398        5.1949337252
 H       -15.5427968596       11.1222941634        4.9950279588
 H       -16.8631643871       11.4269749715        3.7476430703
 H       -16.4004450356       12.6999188884        4.9941049481
 H       -11.6405324131       11.2941570497        1.5025932105
 H       -13.3559330623       11.2070452303        0.9236916496
 H       -13.2049053193        9.0712154418        0.1530417934
 H       -12.5572511262        8.4629096848        1.7784240334
 H       -10.7581853401        6.3654438130        0.6184216647
 H        -9.2464335660        5.6219476264        1.1830568015
 H        -8.3401775561        6.4391523687       -1.2386129361
 H       -10.0235321711        6.4821441160       -1.8201978200
 H        -7.3376051636        2.7424280175       -4.6325690137
 H        -8.9112610501        2.8645570980       -5.4699009477
 H        -7.7424156031        0.7080378109       -5.8684423314
 H        -9.4106139926        0.4910916520       -5.4237578020
 H        -8.3008820524       -3.9385244800       -3.4670947851
 H        -9.6657859925       -4.1049470859       -2.1025960721
 H        -6.7720438692       -3.4000335994       -1.8152997380
 H        -7.4253952838       -5.0693151476       -1.6971552343
 H       -10.5213047259       -1.9458477580        1.3330014304
 H       -10.2563018595       -0.7523584918        0.0884309867
 H        -9.6370017430       -0.3304445255        2.9557347157
 H       -10.9497650610        0.3622722871        2.1563326988
 H        -6.7650607473        2.3109715316        5.2714482576
 H        -5.7211544195        1.8263704363        3.8606910035
 H        -6.0791783612        0.7294464760        5.1917459891
 H        -6.7544267938        2.6704692379        1.8512409102
 H        -7.0680201151        3.8353942895        3.1251769750
 H        -7.9728510303        3.7648837256        1.6961247883
 H       -10.1830675233        3.4819036603        3.0188664136
 H        -9.3669579889        3.4524831332        4.5650077806
 H       -10.2939492345        2.0150653129        4.1426264171
 H        -9.1996505776       -3.0476068628        2.9111262412
 H        -7.6915865727       -3.3317673177        3.3403252847
 H        -8.6628218301       -4.5821554180        2.5051873793
 H        -5.9391115313       -3.9929602522        1.3422471259
 H        -6.1574553273       -2.5188089817        2.3942648216
 H        -5.8355729938       -2.4149305056        0.6240662098
 H        -9.2687381155       -2.9030481667       -5.7860958120
 H        -9.0880290719       -1.3856049647       -6.1895638129
 H       -10.3665511358       -1.6879391670       -4.8066652232
 H        -6.3761079856       -2.2430861706       -5.5593589625
 H        -7.1537576954       -3.5927638361       -4.7300937258
 H        -6.1953235588       -2.3190756836       -3.7845620015
 H        -8.9273792816        4.9833438969       -4.8867284437
 H        -8.8643171589        6.2730211243       -3.6124541721
 H       -10.4027316252        5.3322687085       -3.8697886838
 H        -7.0598032439        5.3702714107       -2.5010001365
 H        -6.6710545747        3.6905444485       -3.4137786151
 H        -7.1282099057        3.9345939500       -1.6494587355
 H        -8.1260200178        9.8545884888        1.8511384540
 H        -9.3590047806       11.1040886413        1.3329370958
 H        -8.4008083699       10.2056418382        0.0671382725
 H        -9.2621384427        8.3095808493        3.1933870743
 H       -10.7753612696        7.5564751382        2.9025366753
 H       -10.8290094204        9.1532551038        3.1796909096
 H       -12.7524867362       13.1197828410        1.9407088943
 H       -11.4229987336       13.0208654840        3.1616484500
 H       -12.7346637272       14.2261818668        3.4601397801
 H       -13.2739273521       12.9177806959        5.6949254339
 H       -12.1652778723       11.7789538930        5.3081462082
 H       -13.5917047021       11.2441507003        5.7919742488
 Na       -8.9084004807        0.5567864815       -1.3804196817
