117

 C       -15.5863082494       12.2588761996        3.9338858700
 C       -14.5732268442       12.7209578425        3.0058724488
 O       -14.7578393501       12.9834757099        1.8736191455
 C       -13.0939976852       12.2145295353        3.4743497104
 C       -13.1065519226       10.7156994450        2.9554775559
 O       -13.0315567125        9.8198236854        3.7652035491
 C       -13.1842182903       10.4652646240        1.4560186971
 C       -12.6979185042        9.0616585014        1.0341414505
 C       -11.2420246295        9.0972633455        0.3909378783
 O       -11.0318308372        9.2742192684       -0.7724730428
 C        -9.9722438425        8.8483373576        1.1704796277
 C        -9.0961575739        7.8771419823        0.3265247871
 O        -7.9740213636        8.1704028751       -0.0419693723
 C        -9.8485259851        6.3604546973        0.2344553514
 C       -10.0391423522        5.8189220116       -1.2737023131
 C        -9.5779113683        4.3313978367       -1.5416793065
 O        -9.5591826438        3.4723291776       -0.7289007154
 C        -8.7554560458        4.0688932459       -3.0060065699
 C        -8.9422575860        2.6162015870       -3.5243451338
 O        -9.7649095497        1.8208108347       -3.1690539462
 C        -8.0766799553        2.0170413246       -4.7377307223
 C        -8.5974079952        0.7102833319       -5.1640784292
 C        -8.1280098111       -0.4158004556       -4.1074941172
 O        -7.3800776353       -0.1846323722       -3.1817154251
 C        -8.5264162923       -1.8615290119       -4.3438425539
 C        -9.2010225958       -2.3400734428       -3.0157202207
 O        -9.7093886630       -1.5003719638       -2.2360812841
 C        -9.0224196707       -3.8304160505       -2.6028738070
 C        -7.9125365738       -3.7929735430       -1.5767178437
 C        -8.3680006708       -4.1841546010       -0.0777898869
 O        -8.9544853734       -5.1753007011        0.1970578375
 C        -7.9901810717       -3.1023359324        1.1183316504
 C        -8.5130292725       -1.6456081974        0.7521577908
 O        -7.7556319407       -0.9783978139        0.0282253714
 C        -9.8054002768       -1.0495741918        1.2982892236
 C        -9.5205691366       -0.1143503186        2.4511766028
 C        -8.7958144733        1.1213784354        2.1313142030
 O        -8.6489370978        1.5087876394        0.9560253430
 C        -8.5181497271        2.2572225048        3.1857101381
 C        -7.6442411522        1.5905785345        4.4757238205
 O        -8.0618885221        0.5530541303        4.9537927310
 C        -6.3367401911        2.0716350551        4.9518601472
 C        -7.7899932225        3.4737295105        2.5131691390
 C        -9.8885844907        2.7109158040        3.7827002792
 C        -8.5100747262       -3.6464544833        2.4415005926
 C        -6.3526032767       -3.0594901070        1.1769020119
 C        -9.6249722590       -1.8803849635       -5.4367453969
 C        -7.2279733980       -2.7499550785       -4.6272795185
 C        -9.1720508978        4.9996910206       -4.1031093041
 C        -7.1924376474        4.3394129388       -2.6404504088
 C        -9.0669968523       10.1246134660        1.4335242194
 C       -10.1439975589        8.1595869622        2.6234043020
 C       -12.1812397272       13.4189680837        2.6992060046
 C       -12.9699069095       12.2233292045        4.9915159067
 H       -15.7243392761       11.0887650558        3.7748224993
 H       -16.6013346171       12.5015758643        3.6030684146
 H       -15.3030168862       12.4861637577        4.9505692214
 H       -12.5975880415       11.1657707179        0.8940929614
 H       -14.2774037816       10.4944016895        1.1473880964
 H       -13.1940595449        8.7501512353        0.1638612810
 H       -12.6343572253        8.3624216878        2.0147174274
 H       -10.6946629859        6.4361548293        0.8680855457
 H        -9.2386299182        5.8231912903        0.8975321080
 H        -9.6016123891        6.5129862007       -1.9289054744
 H       -11.2307723039        5.8609249235       -1.4927824244
 H        -6.9555495937        2.0408979024       -4.5142915933
 H        -8.0495493903        2.5287961891       -5.7242514265
 H        -8.1577715227        0.4030493522       -6.1573832698
 H        -9.7044955801        0.6489714968       -5.1048047799
 H        -8.8279349961       -4.6530595746       -3.3075477224
 H        -9.9931603981       -3.9733593240       -2.0619048287
 H        -7.4740409682       -2.8027057846       -1.6474534744
 H        -7.2315610465       -4.5848407470       -1.8930195531
 H       -10.4424607439       -1.9127826664        1.5504122497
 H       -10.2704004206       -0.4453290170        0.5072973849
 H        -8.8620216933       -0.5459388171        3.3135142699
 H       -10.4648972258        0.1146369608        2.9955254128
 H        -6.3661799573        3.1714703782        4.9269347870
 H        -5.4678490888        1.6502700599        4.3818631271
 H        -6.2689518918        1.7400545288        5.9827281475
 H        -6.7537728045        3.3453044930        2.2612456691
 H        -7.8889979500        4.4944258015        3.0591150932
 H        -8.2908040579        3.7516504505        1.5644242358
 H       -10.5041719611        3.2465561828        3.1246668387
 H        -9.5846006369        3.3462075831        4.6541782442
 H       -10.3487099951        1.9181885823        4.3317583894
 H        -9.3494735970       -4.3542083700        2.4312879458
 H        -8.8161164485       -2.8100567133        3.2064887108
 H        -7.7089823310       -4.2028584469        2.9264665484
 H        -5.9532450122       -3.8383179637        1.7251100872
 H        -6.0365925180       -2.0836962398        1.6353076476
 H        -6.0369597827       -3.1601862997        0.1039393020
 H       -10.0146222370       -2.9381094973       -5.4217430927
 H        -9.1732988412       -1.9074326896       -6.4019163418
 H       -10.2844736261       -1.0813805048       -5.2435508050
 H        -6.6648320196       -2.2910292089       -5.3982412365
 H        -7.4409894686       -3.7437299380       -4.8332219602
 H        -6.7167517367       -2.6815068524       -3.6719203344
 H        -8.3977310325        4.9550172010       -4.8776385004
 H        -9.2129730321        6.0195785365       -3.8430261003
 H       -10.1259373963        4.6805100513       -4.4602748890
 H        -7.1125814302        4.9164976759       -1.8007476241
 H        -6.7575534473        4.6949432803       -3.6023981325
 H        -6.8069777071        3.3782591726       -2.5517303797
 H        -8.4109553627        9.8977381403        2.2800253398
 H        -9.6322565715       10.9185814805        1.8549397847
 H        -8.5628921051       10.3682527861        0.5449150371
 H        -9.1341893029        8.1382280084        3.1989153220
 H       -10.6408352086        7.2450068543        2.7215220724
 H       -10.8733781027        8.8258613422        3.1531630475
 H       -12.4416000997       13.3118236790        1.6683034146
 H       -11.1330697960       13.3992689788        2.7231215351
 H       -12.5299914467       14.3532881273        3.0746684088
 H       -13.6001456924       13.0543276667        5.4463281777
 H       -11.9019510229       12.3029141803        5.3463947177
 H       -13.2665697001       11.3341236342        5.5767554934
 Na       -8.5749736585        0.8569562274       -1.3088027180
