117

 C       -15.7302621234       12.5158121170        3.6610694633
 C       -14.4357354331       12.7619158702        2.8487702664
 O       -14.6132110438       13.1580077351        1.6679435866
 C       -12.9779444634       12.3900683743        3.2988915546
 C       -12.8625701907       10.8193793619        2.8334550126
 O       -12.4777057612       10.0454358453        3.7003120628
 C       -13.2985791207       10.4613008770        1.4310680007
 C       -12.7939833158        8.9571374575        1.1485377679
 C       -11.3773917206        8.8558226491        0.4939935029
 O       -11.2947170244        9.0342655804       -0.7324893500
 C       -10.1217847816        8.6171815679        1.3169356181
 C        -9.2592892250        7.6442712557        0.1492117455
 O        -8.2111745100        8.0205586793       -0.3171428242
 C        -9.7219297985        6.0844385609        0.0244387148
 C       -10.0939505141        5.6454531773       -1.4453277257
 C        -9.3872116269        4.3148519286       -1.7920893174
 O        -9.2913894920        3.4431633017       -0.9235828053
 C        -8.5923989979        4.0430573820       -3.0947933924
 C        -8.7701819611        2.5384464580       -3.5031781477
 O        -9.7653042512        1.9468112535       -3.0250277028
 C        -7.8898948945        2.0676561717       -4.5825084228
 C        -8.4156544219        0.7612523123       -5.2738311184
 C        -8.3413552005       -0.3885370449       -4.1720150754
 O        -7.6721427696       -0.1354640568       -3.1937961505
 C        -8.7180167738       -1.9501790443       -4.3774007585
 C        -9.3760822804       -2.2817044752       -2.9748912729
 O        -9.9596428526       -1.4472880474       -2.3486310642
 C        -9.2743751118       -3.6959901475       -2.4033391384
 C        -7.9176700435       -3.8879479963       -1.4723200138
 C        -8.4414000434       -4.0909380546       -0.0684472941
 O        -9.0435977096       -5.0980633101        0.2608039781
 C        -8.0360210060       -3.0939324802        1.1013593212
 C        -8.3735590335       -1.6206179716        0.7881223417
 O        -7.6242273211       -0.9277891142        0.0966679949
 C        -9.6250801290       -0.9933880362        1.4768425241
 C        -9.1039479782       -0.2970273807        2.7490075101
 C        -8.7174985240        1.1910016028        2.3349436998
 O        -8.5027259510        1.5482161767        1.1943906010
 C        -8.5177424531        2.3251371710        3.4600167741
 C        -7.6482951445        1.7628677134        4.5267635092
 O        -7.9705268491        0.8139460239        5.2463560714
 C        -6.4334989586        2.6232087517        5.0024927489
 C        -7.9686388896        3.5901416177        2.7602140897
 C        -9.9501160425        2.5367778952        4.0950677824
 C        -8.5843292808       -3.5293763890        2.4549343216
 C        -6.5094424589       -3.3301731430        0.9905641064
 C        -9.8441150429       -2.4758195621       -5.3973276970
 C        -7.4591935217       -2.6246176950       -4.7610136687
 C        -9.1721565690        4.9730164467       -4.2262608228
 C        -7.0825683081        4.3185125528       -2.7778604421
 C        -9.3275012156       10.0440228617        1.4276149928
 C       -10.2851553669        8.0310430990        2.7010615018
 C       -11.8285347957       13.0454438539        2.4843563232
 C       -12.6367158890       12.5186420773        4.8020129161
 H       -15.8806271589       11.4778924054        3.5698587182
 H       -16.6502190244       12.7626122206        3.1359577965
 H       -15.6350696524       12.7989361097        4.7648475633
 H       -12.7636939165       11.1076319848        0.7531420784
 H       -14.3583223836       10.4453910710        1.2928584046
 H       -13.4276098802        8.5689939474        0.2742178507
 H       -12.7423380084        8.4622468103        2.0050692987
 H       -10.5192839465        5.9835943738        0.7661213320
 H        -8.9319434978        5.6135556575        0.6236901242
 H        -9.6342249953        6.3603721993       -2.2132320036
 H       -11.1037503503        5.7258033997       -1.4299632082
 H        -6.8621886620        1.9468440068       -4.2858664525
 H        -7.7504468847        2.9333579670       -5.2464486931
 H        -7.7441147744        0.2612392549       -5.9456338529
 H        -9.4001345285        0.7704236031       -5.6119745475
 H        -9.0880914030       -4.4118123652       -3.2816166496
 H       -10.1447815620       -4.1365420611       -1.8770499217
 H        -7.3749978347       -2.9345660857       -1.4210290035
 H        -7.4263055959       -4.7181873614       -1.9292895852
 H       -10.3766065087       -1.6933273994        1.8883415465
 H       -10.0844657283       -0.3086771074        0.7330521388
 H        -8.4077873967       -0.7890169270        3.3758860046
 H        -9.9843049675       -0.2434146492        3.3244087945
 H        -6.3736354535        3.6045895433        4.5585747135
 H        -5.5959804197        2.0627316961        4.6258025281
 H        -6.3033680073        2.6253656362        6.1068554120
 H        -6.9005254762        3.5284511756        2.5611596450
 H        -8.0027661823        4.3637114061        3.4470407278
 H        -8.4362263866        4.0219500240        1.9154694172
 H       -10.6489148757        2.4726377024        3.2433158441
 H       -10.0372986589        3.5269635806        4.4788085357
 H       -10.1616129828        1.8782073675        4.9090738147
 H        -8.6076407291       -4.6025386873        2.5217520166
 H        -9.5573076598       -3.2295155149        2.6734410444
 H        -8.0161190691       -3.1485663463        3.3084322071
 H        -6.3983976712       -4.4576084580        1.0968957868
 H        -6.1492631258       -3.0136458188        1.9436683929
 H        -5.9948381461       -2.9421223792        0.1432791267
 H        -9.6209783221       -3.5255110259       -5.5109195145
 H        -9.6451773707       -2.0009039808       -6.4319670259
 H       -10.8076157264       -2.0694457328       -4.9240156219
 H        -7.2388126465       -2.2193318719       -5.7638851930
 H        -7.7262958851       -3.6947653023       -5.0128545967
 H        -6.7092146805       -2.7752175376       -4.0247313535
 H        -8.8342153298        4.6821336659       -5.2314719463
 H        -8.7504011381        5.9984009894       -4.1780483218
 H       -10.2740908191        5.0035186360       -4.1522672406
 H        -7.1046878187        5.4006186089       -2.4440561965
 H        -6.6429435843        4.3306651198       -3.8263799762
 H        -6.6337763186        3.5008751672       -2.1506090610
 H        -8.1826834413        9.9473777105        1.4375526428
 H        -9.4762452576       10.4387191082        2.4343455387
 H        -9.5220080564       10.6775959035        0.5151345231
 H        -9.3470356604        7.8060640238        3.1240663011
 H       -10.8628827274        7.0511496248        2.6139259527
 H       -10.8571343387        8.6545444066        3.3863922254
 H       -11.9896500456       13.5445019077        1.5133101551
 H       -10.9896751195       12.2823296600        2.2930458321
 H       -11.4532942416       13.7970583493        3.2107564256
 H       -12.5349876761       13.4737853768        5.1525819129
 H       -11.8629267307       11.9071063963        5.1458683003
 H       -13.5717297327       12.3267551382        5.3636459456
 Na       -8.6437631914        0.9506430891       -1.1397384997
