117

 C       -15.4172723203       12.8153926114        3.5812148360
 C       -14.2059987474       12.8746469110        2.4684468568
 O       -14.2732011986       13.5180410604        1.4827638170
 C       -12.8600098717       12.3373726698        3.0783002906
 C       -12.6399370261       10.8015288980        2.8942694622
 O       -11.9609749357       10.1649249146        3.7118689279
 C       -13.1331154367       10.2716354671        1.4957495939
 C       -12.8784038738        8.7689652259        1.2027021432
 C       -11.6823550397        8.6098801109        0.3574007390
 O       -11.7628300322        8.8299453770       -0.8298975731
 C       -10.2174616458        8.2946499257        1.1383103998
 C        -9.4233609097        7.4633927732        0.1753070080
 O        -8.5505300158        7.8599637684       -0.5287170755
 C        -9.7937556545        5.8772293180        0.1295989405
 C        -9.5069699092        5.6385284753       -1.3372577857
 C        -9.1221251403        4.2830324421       -1.7484648995
 O        -9.0809237831        3.4224548218       -0.8878441830
 C        -8.5388971506        4.1192640395       -3.2831987562
 C        -8.8180983043        2.6025437427       -3.6646357800
 O        -9.6876317355        1.9738184106       -3.1319508095
 C        -7.9279122166        1.9773662430       -4.8897292189
 C        -8.3633511700        0.6381701812       -5.3104711601
 C        -8.3818346455       -0.4601816226       -4.1477497799
 O        -8.0091561643       -0.1469487381       -3.0297872415
 C        -8.9741311208       -1.8915035003       -4.3808867110
 C        -9.5957061944       -2.3006900231       -2.8952358854
 O       -10.0331385291       -1.4456234052       -2.1414321454
 C        -9.4522645223       -3.7327623253       -2.4831107865
 C        -8.3037750011       -3.7920421266       -1.4525659964
 C        -8.5673842064       -4.1456608176        0.0555077791
 O        -9.4662761546       -4.9062178601        0.2862101805
 C        -7.8216153312       -3.2100008890        1.2535638007
 C        -8.2117551711       -1.7653632526        0.8074665018
 O        -7.6857888097       -1.2380940144       -0.1872225947
 C        -9.3060907524       -1.0320026913        1.5405195326
 C        -9.0084518948       -0.1697017377        2.8551604637
 C        -8.6189661673        1.3528652438        2.5026299225
 O        -8.2948190058        1.7729149008        1.4153075287
 C        -8.6193057107        2.4498120638        3.7153996268
 C        -7.5554823597        2.0212944654        4.8520755681
 O        -7.7096241185        0.9937275278        5.4449481585
 C        -6.3656658504        2.9141495701        5.2160116506
 C        -8.3720333984        3.7962821695        3.0632960642
 C       -10.1148363069        2.5383913422        4.2394690007
 C        -8.4136112728       -3.7393278099        2.5744131844
 C        -6.2462863946       -3.2935294927        1.3060654426
 C       -10.0180229492       -2.0007538284       -5.4466621483
 C        -7.5051947305       -2.7259757656       -4.6666436979
 C        -9.1524787777        5.0939349728       -4.3239827876
 C        -6.9924274198        4.4586730539       -3.1123524145
 C        -9.5095491611        9.6880566594        1.1685482334
 C       -10.4118123993        7.5032839844        2.5701204385
 C       -11.7842148720       12.9863346066        2.2013236697
 C       -12.7015591113       12.7214151111        4.5167129567
 H       -15.7379600809       11.9781776187        4.1295711118
 H       -16.3376578293       13.0361387791        3.0381589557
 H       -15.1140983870       13.5989748757        4.2387823343
 H       -12.9594227935       10.9961882125        0.5808395538
 H       -14.1947671513       10.1110283214        1.6285977976
 H       -13.7785168375        8.3973553298        0.7597131449
 H       -12.5516819322        8.4429310529        2.2777889882
 H       -10.8472264734        5.7700868585        0.4569662422
 H        -9.2351149627        5.1989605833        0.8124707199
 H        -8.8215670445        6.3650108371       -1.7678732390
 H       -10.5970992918        5.8457651976       -1.7223829399
 H        -6.8667735819        1.8947392244       -4.6633056167
 H        -7.7669397219        2.6193439809       -5.7703989579
 H        -7.6726190882        0.1352837327       -6.0652853113
 H        -9.4719529458        0.5839430378       -5.6860478638
 H        -9.4796139774       -4.4275218236       -3.2609317562
 H       -10.2629616461       -4.1944220240       -1.9187101244
 H        -7.6390495495       -2.8903091400       -1.4711641086
 H        -7.7629195878       -4.7620994982       -1.7206457015
 H       -10.0937514139       -1.7351573888        1.7369802022
 H        -9.4759308592       -0.3443916983        0.7137693761
 H        -8.0882936816       -0.5915744074        3.3664363130
 H        -9.8374667233       -0.2724534539        3.6963891271
 H        -6.6744167940        3.9608343524        5.1004213584
 H        -5.3622187561        2.7864104270        4.7665823933
 H        -6.3191923836        2.6910669220        6.2512851280
 H        -7.5243001286        3.8033086950        2.3849388843
 H        -8.1738904713        4.7219943886        3.6527447378
 H        -9.2357312334        4.1051583226        2.4266746402
 H       -10.8928030073        2.7122590326        3.4752613001
 H       -10.1788456644        3.3613709291        4.9963211789
 H       -10.2841727163        1.5452128654        4.7842140641
 H        -7.5769958517       -4.0690090890        3.2077230178
 H        -9.0290259926       -4.6549996141        2.5148739712
 H        -9.1274989396       -3.0793090056        3.0994413499
 H        -5.9388989974       -4.1531245014        0.7647874181
 H        -5.8276867819       -3.4327005583        2.3015257235
 H        -5.8967002362       -2.3809754137        0.7907211582
 H       -10.1773552477       -3.1236696105       -5.3997204169
 H        -9.5601952973       -1.6073544501       -6.3403854185
 H       -10.8499035333       -1.4212534824       -5.2317620321
 H        -7.4309053016       -2.7890405162       -5.7671980187
 H        -7.3072197853       -3.7329351364       -4.2006078181
 H        -6.6678305984       -2.1788166584       -4.0852989515
 H        -8.9397260364        4.9675977009       -5.3691328829
 H        -8.7089408933        6.0677503210       -4.0599648111
 H       -10.2154689038        5.2428346448       -4.1418309716
 H        -6.8681766547        5.5203597345       -3.3447890722
 H        -6.3455087504        3.9557200519       -3.6747421407
 H        -6.9024297426        4.1537969003       -2.0946122455
 H        -8.4964336087        9.5334344903        0.9285285183
 H        -9.4382008889       10.0943250803        2.2097876348
 H        -9.7790162899       10.3582231979        0.3601238844
 H        -9.4167721595        7.3064001172        3.0338899490
 H       -10.8046637178        6.5280656632        2.3759491562
 H       -10.9296248098        8.0527475023        3.3420242595
 H       -12.2449880485       13.1027904305        1.1997360223
 H       -10.9221460618       12.3838323488        2.0602843786
 H       -11.5683771105       14.0144061438        2.5010535289
 H       -12.2945265654       13.7814067279        4.5791351080
 H       -11.7750926610       12.1576313934        4.8367008737
 H       -13.4776389074       12.8527700920        5.2052981064
 Na       -8.7901511772        0.8819133610       -0.9861878373
