117

 C       -15.4828377376       -1.5689934388        2.0036754571
 C       -14.0552367437       -2.0917329764        1.8788778972
 O       -13.2520997634       -2.1318573050        2.7666418285
 C       -13.5915540698       -2.5452212350        0.3035688466
 C       -12.4204615727       -1.4582899444        0.1264244654
 O       -12.6101310976       -0.4013605297       -0.4063114963
 C       -11.1211776210       -1.8135160999        0.7934460856
 C        -9.8402019434       -1.0415427553        0.3781656890
 C        -8.7713603058       -1.7676014759        1.2213051875
 O        -8.7149246835       -2.9239296816        1.4173922660
 C        -7.5552102760       -0.6434013387        1.5482942133
 C        -8.0737994384        0.5214298802        2.4261845942
 O        -9.2352490338        0.8871470101        2.4779360139
 C        -7.0838465928        1.3309085479        3.3100871385
 C        -7.9021621659        2.4365090169        4.1289179714
 C        -8.6007092464        3.3940227522        3.2326658638
 O        -7.9737450203        3.9835753948        2.3573317429
 C       -10.1985983052        3.7916481646        3.4724799126
 C       -10.7953219954        4.4861894340        2.1632955159
 O       -10.2686532960        5.3563421382        1.5940629122
 C       -12.2462954678        3.9725759971        1.6255479033
 C       -12.1656958000        3.7190937568        0.1196478020
 C       -10.7978978354        3.0325030626       -0.2721216515
 O        -9.9709773613        2.5852448617        0.5000223335
 C       -10.5142718139        2.9135369387       -1.8820261696
 C        -9.9010624240        4.2745215223       -2.3053556257
 O        -8.8054935166        4.6489461363       -1.8690807329
 C       -10.5125164844        5.1587148783       -3.3415924653
 C        -9.6072499518        6.3741712647       -3.7174235066
 C       -10.3274877372        7.4518165146       -4.5073296703
 O       -11.5142769886        7.3164556720       -4.7851882480
 C        -9.5089368967        8.7745134912       -4.7009441059
 C        -8.9628444821        9.2112861573       -3.2129495263
 O        -7.7697088835        9.3424149159       -3.0356884636
 C       -10.0763835223        9.4842452750       -2.2584070635
 C        -9.5168503540        9.6341590619       -0.8137995622
 C        -8.6546075396        8.4574226333       -0.3463409332
 O        -9.0299744959        7.2968400968       -0.5147847752
 C        -7.2745572913        8.5926804169        0.5718163425
 C        -6.2222507572        7.7704886679       -0.4107851474
 O        -6.4500584550        6.5742718291       -0.4871841294
 C        -4.9955851884        8.5705107137       -0.8429869111
 C        -6.9002715810       10.0347510711        0.8705164625
 C        -7.5102332937        7.7659118711        1.8977198478
 C        -8.2804879788        8.5835896376       -5.6506515398
 C       -10.4308502671        9.8256163345       -5.3594067429
 C        -9.4219185726        1.8295965370       -2.1816668369
 C       -11.7495729759        2.5341379496       -2.6353738889
 C       -11.1215900895        2.6332326070        3.9772300626
 C       -10.2313358677        4.8827461859        4.6365811868
 C        -6.4259961394       -1.4218815843        2.2670599110
 C        -7.1174766660       -0.0823626196        0.2081081997
 C       -13.0819588984       -3.9267561815        0.3325665212
 C       -14.6264213876       -2.4911417492       -0.8581565732
 H       -16.2309768843       -2.3725000887        2.0932112942
 H       -15.8407714315       -1.0963317198        1.0468887126
 H       -15.6724128649       -0.9475227237        2.8640242479
 H       -10.9865054122       -2.8575128879        0.6408251298
 H       -11.1494310135       -1.7782068894        1.8883515791
 H       -10.1051005920       -0.0234253365        0.6534460077
 H        -9.6518364021       -1.2462424413       -0.6261280008
 H        -6.2177848096        1.7052959871        2.6844785771
 H        -6.5764753202        0.6480573482        4.0207782475
 H        -7.3898196027        3.0559311238        4.8360982917
 H        -8.5883895431        1.8275533605        4.7528818755
 H       -12.9435677970        4.7176457538        1.7944202883
 H       -12.5872448455        3.1296776981        2.2422127514
 H       -12.1310035317        4.7322396748       -0.3078048287
 H       -12.9846347718        3.1887065562       -0.2524486320
 H       -11.5735471072        5.4166193654       -3.1323685121
 H       -10.6148575489        4.5071495662       -4.2075110009
 H        -8.7099583798        6.1318028791       -4.2281066738
 H        -9.3411507144        6.8760543710       -2.7948331158
 H       -10.8298414331        8.6274907533       -2.3531342814
 H       -10.6414343847       10.3756610474       -2.6139741708
 H       -10.3553675308        9.8099310364       -0.1649087208
 H        -8.9069082286       10.5521696043       -0.7642703176
 H        -5.1924165521        9.0816906603       -1.7976485160
 H        -4.1644141299        7.7965753934       -0.9715055724
 H        -4.6459547452        9.3407787125       -0.1401717014
 H        -7.6233769093       10.4407620846        1.5371324202
 H        -6.9620107631       10.6787779401       -0.0106374879
 H        -5.9043725187       10.2271272700        1.3170052772
 H        -8.5500248962        7.9938717705        2.2192734890
 H        -6.7825066887        8.1475864896        2.6688351156
 H        -7.4202683055        6.7760960755        1.6657488533
 H        -8.5452363683        8.5867373280       -6.6991210525
 H        -7.7423978973        7.6136117884       -5.4184820865
 H        -7.4876052360        9.3594981708       -5.5671891993
 H       -10.7526392885        9.5498014916       -6.3709370941
 H       -10.0115949324       10.8001718582       -5.2408580889
 H       -11.3701564846        9.8807403657       -4.8247229668
 H        -9.7535131055        0.8910747104       -1.7532682512
 H        -8.4982213804        2.0704734800       -1.6312219729
 H        -9.1618958864        1.7947916889       -3.2310830114
 H       -12.6191613141        3.1823883948       -2.6065115922
 H       -12.2072637476        1.5556684119       -2.3508019912
 H       -11.3825125150        2.2931466412       -3.6590237439
 H       -11.2292691937        2.0017800476        3.1250135076
 H       -12.1302505735        3.0746385372        4.3049300153
 H       -10.6946157496        2.0205054021        4.7683480853
 H        -9.3936604308        5.5850624935        4.4848685158
 H       -10.2846438660        4.3493212792        5.6211636431
 H       -11.1852749761        5.4064064455        4.4970170893
 H        -6.0699782781       -2.2672139820        1.7045607095
 H        -6.7790323825       -1.8703827591        3.1866612484
 H        -5.6261761269       -0.7683678714        2.4459944338
 H        -7.9236361857        0.5313214276       -0.1405551641
 H        -6.9539755355       -0.8671355179       -0.5134913400
 H        -6.3229820578        0.6118030518        0.1561100201
 H       -12.3204132542       -4.1631895677        1.1291300953
 H       -12.4700713451       -4.1817740812       -0.5790229086
 H       -13.6681946188       -4.8018041107        0.3798024494
 H       -15.2304574456       -1.5886480126       -0.8221495450
 H       -15.4383821303       -3.1724028661       -0.7000962546
 H       -14.1638974325       -2.7049155759       -1.8451228069
 Na       -8.5111542321        5.3065232248        0.2849704979
