117

 C       -14.3209145288       13.9986852134        2.3693098471
 C       -13.2644800707       13.5311094007        1.3648544090
 O       -13.4185051863       13.6972603268        0.1659314313
 C       -11.7973733414       12.7565018064        1.8614949678
 C       -12.2568661961       11.4126921258        2.3104621530
 O       -12.6215334029       11.1864893950        3.4502048617
 C       -12.2563760630       10.1649591386        1.2680704240
 C       -12.5136045070        8.7668272174        1.9532753835
 C       -12.0381698517        7.6037802660        1.2177571442
 O       -12.6925458640        6.7528431591        0.5858285434
 C       -10.4312009887        7.3560487927        1.1629001758
 C        -9.9955677876        7.1501396724       -0.4102494229
 O        -9.3253949052        7.9814180890       -0.9859207448
 C       -10.5822101370        5.9164877645       -1.1342895231
 C        -9.6649717694        5.4772612452       -2.3001462034
 C        -8.9754431526        4.0461193889       -2.3362976946
 O        -8.8311410299        3.3201316052       -1.3487972381
 C        -8.3872051101        3.6803068379       -3.7109508142
 C        -8.7556958895        2.1576036515       -4.1243820192
 O        -9.7872272214        1.7153664080       -3.7230845562
 C        -7.8044226394        1.2638697013       -5.0249050982
 C        -8.1335186913       -0.1971211285       -5.0290717319
 C        -8.4982054007       -0.5975532179       -3.6191821725
 O        -7.8895689849       -0.1153258000       -2.6654888163
 C        -9.5895607401       -1.7454453582       -3.2828917157
 C       -10.0187079819       -1.8481959910       -1.7252125927
 O        -9.5333747928       -1.1566882015       -0.8836774824
 C       -10.9100561631       -3.0638816078       -1.3675497790
 C        -9.8825773474       -4.0166842506       -0.6052602429
 C        -9.3728969299       -3.5526751071        0.7364368236
 O       -10.0105299587       -3.8093461493        1.7314503611
 C        -7.8700326256       -3.0631272622        0.9536740615
 C        -8.0248310552       -1.4396621772        1.0647257610
 O        -7.0617031844       -0.8027326468        0.7545182917
 C        -9.1856487679       -0.9280108839        1.8951602825
 C        -8.6521337501       -0.0531439258        3.0651339554
 C        -8.7484184123        1.5079587561        2.7397729480
 O        -8.6727019687        2.0264477400        1.6969119270
 C        -8.9259145387        2.4332052609        4.0583562984
 C        -7.4923896481        2.6304156589        4.6580808945
 O        -6.6497848141        1.7948127177        4.3958571990
 C        -6.9340427790        3.8726163145        5.4017628556
 C        -9.4774547218        3.7513830992        3.5284916251
 C        -9.8049737188        1.8980733070        5.1778460252
 C        -7.3336279813       -3.5704215926        2.3083644370
 C        -6.8071241866       -3.5838252113       -0.1818180572
 C       -10.9581783304       -1.2423724671       -3.9994171962
 C        -9.0484429232       -3.0577484130       -3.6365091536
 C        -8.6540022983        4.6132557147       -4.8863411557
 C        -6.8221741077        3.7261362468       -3.4666983286
 C        -9.7087781071        8.5283889858        1.7577714105
 C       -10.2168733082        5.9945034860        1.9046966877
 C       -10.8744825780       12.9015264865        0.6140359283
 C       -11.0982704559       13.5838520714        2.9159789621
 H       -14.5537794161       13.0881154281        2.9255674728
 H       -15.1282610950       14.5557437811        1.8758096279
 H       -13.8426335017       14.7144697708        2.9385549855
 H       -11.3533142370       10.1244796533        0.5746710105
 H       -13.0631088313       10.4378027735        0.5761063703
 H       -13.7218093116        8.8493648443        2.1096236759
 H       -12.1871097015        8.5705815443        2.9465293895
 H       -11.5629221462        5.9247170832       -1.5714870498
 H       -10.5529135328        5.0993453422       -0.3189868816
 H        -8.6992704196        6.0386944567       -2.3148956744
 H       -10.1396815931        5.6562812001       -3.1800082435
 H        -6.9053318175        1.3146236579       -4.4926451448
 H        -7.6995072715        1.5246822956       -6.0588118965
 H        -7.1606164864       -0.6343019391       -5.4513390465
 H        -8.9541198652       -0.4927027065       -5.6706489986
 H       -11.1369113827       -3.6101276599       -2.2279934843
 H       -11.5933601055       -2.5721547579       -0.7602845667
 H        -9.1291386762       -4.2060064141       -1.3493971150
 H       -10.2076047980       -5.0174291255       -0.3788276468
 H        -9.7431664336       -1.7509362630        2.2679007976
 H       -10.0310066121       -0.4127972963        1.4093557234
 H        -7.5713987977       -0.0909727313        3.4194250485
 H        -9.3814316713       -0.2012248456        3.8565741393
 H        -7.7055721773        4.5502460778        5.8174957744
 H        -6.1739193252        4.3963329140        4.8168027993
 H        -6.3633242672        3.5161167718        6.3181717979
 H        -8.8784839127        3.9474028420        2.6016875790
 H        -9.2524579289        4.5150545079        4.2724365340
 H       -10.5667538683        3.8055968150        3.3524651147
 H       -10.8706279276        1.7356440173        4.8450154783
 H        -9.8126240266        2.3857225931        6.1368337010
 H        -9.3301650448        0.9515069461        5.4051558942
 H        -7.0316511930       -4.6107125146        2.2754121670
 H        -8.0443404022       -3.4357197074        3.1795549214
 H        -6.4503413192       -2.9914071442        2.5925211333
 H        -6.7657766358       -4.7365977473       -0.1326899512
 H        -5.9009773695       -3.3302906755        0.2846303818
 H        -6.9165570511       -3.3517816010       -1.2100248438
 H       -11.5495967938       -2.0525216564       -4.3310080801
 H       -10.9242227535       -0.7832642159       -5.0031639480
 H       -11.2151425959       -0.4841815166       -3.1907864349
 H        -9.2267175037       -3.8003722308       -2.8667746374
 H        -7.9849562757       -3.0978835743       -3.5932775694
 H        -9.3735423283       -3.3445181751       -4.6001411414
 H        -8.1028059164        4.5029863572       -5.7485091502
 H        -8.2558986181        5.5902884379       -4.6292145945
 H        -9.6899181453        4.7979472172       -5.1011807809
 H        -6.4135106680        4.7197808942       -3.2907635354
 H        -6.1814577147        3.3148185584       -4.4392198358
 H        -6.4226256149        3.0684928646       -2.6358294799
 H       -10.0561605108        8.9244261851        2.7479309940
 H        -9.9709867705        9.3007823173        1.1242455613
 H        -8.5842788734        8.6432911739        1.8563562877
 H        -9.3540705578        5.4664619426        1.5832236816
 H       -11.2234728031        5.4400517001        1.8360630957
 H       -10.1701350665        6.1569088265        3.0055844962
 H       -11.6111032330       13.3215999788       -0.0278665935
 H       -10.5854290510       12.0075512030        0.1312635669
 H       -10.0583202322       13.5605579241        0.7694774664
 H       -11.2484973538       14.5915059427        2.5847795450
 H       -10.0100961690       13.3395674390        3.0178781815
 H       -11.5809200768       13.2611263384        3.8896289233
 Na       -7.9743373756        0.9726870406       -0.4879629773
