117

 C       -13.9109001977       14.2598017379        2.2687850419
 C       -13.0814788405       13.6911769745        1.0937632403
 O       -13.3896895844       13.8063828842       -0.0679649922
 C       -11.8124332660       12.7901792943        1.5495144997
 C       -12.3041059179       11.4719547274        2.0568325124
 O       -12.5914046713       11.3987983581        3.2589399654
 C       -12.2822278769       10.1986149368        1.1457416785
 C       -12.5098222066        8.9365269347        2.0208834386
 C       -12.0244531850        7.6270149704        1.1710908565
 O       -12.8524100999        6.8645099709        0.6868311287
 C       -10.4805069802        7.3409569623        1.0621763459
 C       -10.2345410901        7.0674041120       -0.4867573334
 O        -9.6204672361        7.9111046835       -1.1216104768
 C       -10.5732803950        5.5578959466       -1.1672730275
 C        -9.6781609444        5.4604866510       -2.3863478794
 C        -8.9940267037        4.0380264320       -2.3503974575
 O        -8.8973460526        3.4162444995       -1.3168801068
 C        -8.1644596521        3.4738213913       -3.6153204219
 C        -8.6533225159        2.0568389175       -3.9819220951
 O        -9.8073069885        1.7612277253       -3.7918758429
 C        -7.7813070952        1.1999134158       -4.8410840196
 C        -8.0230191469       -0.3819365639       -4.6687688900
 C        -8.5750478544       -0.5916222733       -3.1988690893
 O        -8.0773074079        0.0119084148       -2.3028565799
 C        -9.7499725184       -1.6077493530       -3.1083857045
 C       -10.0060040783       -1.7996237530       -1.5630911653
 O        -9.6288370407       -0.9065592752       -0.8131094707
 C       -10.9868055695       -2.9920131738       -1.0428954110
 C       -10.0976071257       -4.1751835376       -0.4920099144
 C        -9.3692320592       -3.7135773745        0.8065987001
 O       -10.0015726401       -3.9842115512        1.8040898137
 C        -7.9402119465       -3.0300687727        0.9445711235
 C        -8.1354575092       -1.4670625043        1.0681847229
 O        -7.3425525023       -0.6764548535        0.5411364267
 C        -9.1781921251       -0.8976725398        2.1554671867
 C        -8.4003005351       -0.1140249114        3.1916940171
 C        -8.6748219417        1.4170895412        2.8580828437
 O        -8.6157665315        1.8489499867        1.6615117668
 C        -8.7334185468        2.3277541483        4.0235801032
 C        -7.2155406747        2.5376488550        4.5690766368
 O        -6.2669143047        1.8533205247        4.3151513268
 C        -7.1876242689        3.7487926755        5.4971490242
 C        -9.5795289817        3.6351271335        3.7225083881
 C        -9.3825612865        1.5739603579        5.2374835963
 C        -7.2429172579       -3.5713111498        2.3127141682
 C        -7.0851730983       -3.0504154627       -0.3382075509
 C       -11.0709085346       -1.1958871320       -3.7841853722
 C        -9.3140056911       -2.9632937434       -3.9025213781
 C        -8.5324534514        4.2426374641       -4.8239768873
 C        -6.6417655558        3.5996441314       -3.3288456965
 C        -9.3165292476        8.3730723080        1.5037440176
 C       -10.0597094359        6.0065725543        1.9284049784
 C       -10.8774084471       12.6417353522        0.2629463867
 C       -11.1516098368       13.6275849481        2.7436013366
 H       -14.4949556638       13.3327151824        2.6179347177
 H       -14.5948115172       14.9248308915        1.8525350324
 H       -13.3423929518       14.7609424291        3.0613710611
 H       -11.1779363212       10.0714686032        0.8879273003
 H       -12.9105355988       10.4473420093        0.2893730949
 H       -13.5447453722        8.7842577066        2.2698887719
 H       -11.9653433207        9.1503728837        2.9799734967
 H       -11.7147407342        5.5347705011       -1.3672771560
 H       -10.3446908531        4.7162032988       -0.5144959276
 H        -8.8604247557        6.1485144601       -2.4129836891
 H       -10.1957782144        5.5827746163       -3.4378271924
 H        -6.6894257629        1.4412506643       -4.6201134435
 H        -8.0308585033        1.4103550716       -5.8909831512
 H        -7.0547963448       -0.8470408943       -4.7359162976
 H        -8.6405727612       -0.7170947471       -5.5692161750
 H       -11.6156197801       -3.3373979766       -1.8761493227
 H       -11.4115557329       -2.6850299266       -0.0255836654
 H        -9.3280912651       -4.4680708395       -1.2349921967
 H       -10.6183730507       -5.1482766307       -0.3079900842
 H        -9.8091710380       -1.7001765143        2.5863553545
 H        -9.9589325923       -0.3027867652        1.6998539894
 H        -7.3674787627       -0.2913255687        3.0130055822
 H        -8.7366948644       -0.3602060812        4.2366961733
 H        -8.1687932380        3.7620205925        5.9807257065
 H        -7.1608415880        4.5919498836        4.7691329905
 H        -6.3603714331        3.9881396166        6.1277354289
 H        -9.0063147418        4.2124259288        3.0272784947
 H        -9.8325106602        4.1658768129        4.6061685307
 H       -10.4614367155        3.3091301864        3.1995400413
 H       -10.2000814043        1.0083173792        4.9909800615
 H        -9.8095320567        2.3305674967        5.8562570229
 H        -8.6923361224        1.1085592500        5.9229338565
 H        -7.5839620245       -4.6060380521        2.4885685953
 H        -7.6184624622       -3.0465534799        3.1073425190
 H        -6.1394120791       -3.5572143558        2.3447969051
 H        -6.8181633749       -4.0146290527       -0.6396282310
 H        -6.1690305118       -2.4692010983       -0.1585217350
 H        -7.7530391790       -2.6590990891       -1.1340213801
 H       -11.5349698261       -2.1522115049       -3.9674641626
 H       -10.9752255409       -1.1021842929       -4.8358384860
 H       -11.5612694467       -0.3995019848       -3.3257459882
 H       -10.2505130985       -3.5076329090       -4.2030426102
 H        -8.9762734468       -3.8734916921       -3.2535903992
 H        -8.5841610381       -2.6563588991       -4.7408975591
 H        -7.9976860784        3.7184945102       -5.6846525251
 H        -8.2039509369        5.2576154811       -5.1165083700
 H        -9.5981203640        4.0946863296       -5.0398586862
 H        -6.2727483439        4.5405216022       -2.9306645462
 H        -6.0947386961        3.6211530559       -4.2354175055
 H        -6.2269390791        2.7817285034       -2.8374404780
 H        -9.6949477966        9.2848372370        1.9271928551
 H        -8.7195654633        8.8362805052        0.6234843419
 H        -8.6794612233        8.0233280198        2.2644959634
 H        -9.0528213427        5.6523105866        1.6402498038
 H       -10.7731553173        5.2452610879        1.6544944141
 H       -10.0855813148        6.2366496236        2.9749393009
 H       -11.3501801678       12.2521870692       -0.6495384339
 H       -10.0414308207       11.9980118700        0.5034720138
 H       -10.4817458262       13.6512172675        0.2164085056
 H       -11.4374916899       14.6655366164        2.5519667840
 H       -10.0921293096       13.5147825275        2.5716195221
 H       -11.5569084820       13.2899505389        3.6741958305
 Na       -8.1965629772        1.3516803541       -0.5693494204
