117

 C       -13.8557606522       14.2968884208        2.1593260390
 C       -13.0915253103       13.6632059223        1.0134081619
 O       -13.3458855371       13.8421249189       -0.1686931547
 C       -11.7592886279       12.9090030520        1.4503337970
 C       -12.2935607926       11.5489063649        2.0067699587
 O       -12.6640555477       11.4434985406        3.1947891202
 C       -12.3205683190       10.2753624814        1.0436419086
 C       -12.3635802955        8.9773916976        1.9554225228
 C       -11.8954021072        7.7260386216        1.1851922646
 O       -12.7578879250        6.9278154251        0.7919058421
 C       -10.3771728691        7.2900292502        0.9988298874
 C       -10.2098606343        7.0400829841       -0.5272346617
 O        -9.7788831805        7.8719340620       -1.2965605850
 C       -10.4841944396        5.6617990091       -1.0386142189
 C        -9.7700969181        5.3028983301       -2.3749941476
 C        -8.9287129627        4.0460701218       -2.3611443216
 O        -8.9174382645        3.4038394712       -1.3229425578
 C        -8.1325555905        3.4323814481       -3.6392022812
 C        -8.6127796964        1.9756998245       -3.9690479221
 O        -9.7840504968        1.7289118807       -3.7765049122
 C        -7.6692005276        1.1246871696       -4.8044657778
 C        -8.1288538704       -0.3382883148       -4.5838046215
 C        -8.5818395014       -0.5711424824       -3.1938736916
 O        -8.0531341447       -0.0189838982       -2.2476615119
 C        -9.8086646763       -1.6465578013       -3.0518419467
 C       -10.0955947153       -1.7514369464       -1.5485802256
 O        -9.9843379359       -0.8575954250       -0.7711565949
 C       -10.8088065774       -2.9373476934       -0.9616996165
 C        -9.9617837010       -4.2376845930       -0.4052109549
 C        -9.3193007589       -3.7888842221        0.9115341953
 O        -9.9112799738       -3.9806778134        1.9479868713
 C        -8.0689701713       -2.9685216560        0.8064340332
 C        -8.1956094584       -1.4573233414        1.1253146903
 O        -7.5622495436       -0.6880867596        0.4817197577
 C        -9.0699514009       -1.0074969716        2.2152032889
 C        -8.2809593649       -0.1848407840        3.1465574496
 C        -8.4941281881        1.3499134260        2.8956804870
 O        -8.6852016253        1.8024699125        1.8191304010
 C        -8.6622648432        2.2219654563        4.1805576511
 C        -7.2125947777        2.6568619390        4.6188008432
 O        -6.2510492350        1.9839221052        4.2903040923
 C        -7.1114876165        3.8161301176        5.5696271734
 C        -9.4402286246        3.4479575278        3.8310858661
 C        -9.3361290325        1.5127339724        5.3785556345
 C        -7.3017734186       -3.5508251092        2.0485347000
 C        -7.2150263970       -3.1944659013       -0.4670953923
 C       -11.0850341159       -1.0057048022       -3.6578684736
 C        -9.3622543728       -2.9105230942       -3.7873572805
 C        -8.4961857621        4.2657323535       -4.9260168749
 C        -6.6145252092        3.5337916450       -3.1978114200
 C        -9.3696250546        8.3282334786        1.3356379065
 C       -10.2658371659        6.0391178286        1.8142348985
 C       -10.8545112447       12.6693811084        0.1942852460
 C       -11.0037701183       13.5363251099        2.5016489302
 H       -14.4963495710       13.5200437968        2.7643771018
 H       -14.5476213859       15.1183531820        1.6369482560
 H       -13.0341715510       14.8318981594        2.7202871930
 H       -11.4704364855       10.2492518105        0.2143684385
 H       -13.2754264356       10.4196178915        0.6615013555
 H       -13.5442421915        8.7730517875        2.2027961331
 H       -11.8425163167        9.1116767160        2.8195676864
 H       -11.5245477883        5.7117504952       -0.9717536944
 H       -10.2092781233        4.8944310132       -0.3436453308
 H        -9.1157959546        6.1746121752       -2.7477725943
 H       -10.4435077526        5.0968727646       -3.2723432037
 H        -6.5898903825        1.3203758365       -4.5176997899
 H        -7.8779508828        1.3917766999       -5.9390113819
 H        -7.3551364137       -1.0160396542       -4.6952017259
 H        -8.8919829747       -0.5012326682       -5.3085565145
 H       -11.3567856970       -3.3873744201       -1.8721029348
 H       -11.3374974104       -2.7811172171        0.0220824642
 H        -9.2042322921       -4.6355400854       -1.0921098830
 H       -10.6568075548       -5.0498641060       -0.2952298112
 H        -9.3896587271       -1.9130854972        2.7356642381
 H       -10.0580991533       -0.6516452391        1.7996145904
 H        -7.3377059764       -0.5326179461        3.0328259989
 H        -8.6634313445       -0.3644327597        4.1727728782
 H        -7.6750901237        3.4742255642        6.4359584166
 H        -7.3774907856        4.8007478740        5.2677942604
 H        -6.0623033407        3.9423170351        5.7565890592
 H        -8.8352042297        4.1667907044        3.2267749696
 H        -9.7895509110        3.8756406592        4.7047135282
 H       -10.2377180921        3.0745931348        3.1524247794
 H       -10.2374463371        0.9310988130        5.1022237857
 H        -9.7319630402        2.1909746905        6.0943569364
 H        -8.5888391487        0.9334936625        5.9485880895
 H        -7.5718160963       -4.5984481889        2.3115962734
 H        -7.7437385702       -2.9953005408        2.8599299725
 H        -6.2079980013       -3.4302032912        2.0560079781
 H        -7.0740945612       -4.3322056461       -0.5120238262
 H        -6.2925686527       -2.6790375965       -0.4583862855
 H        -7.8204746289       -2.9426060816       -1.3259843596
 H       -11.9660937820       -1.5213092595       -3.6859528685
 H       -10.9191533708       -1.0689739509       -4.7227552999
 H       -10.9755838543        0.0620994946       -3.3300402840
 H       -10.2073624182       -3.1982343923       -4.4278106750
 H        -9.3995763741       -3.8564694160       -3.2917400110
 H        -8.4634337338       -2.6966715204       -4.2985571550
 H        -7.8645384118        3.8878063894       -5.7187947605
 H        -8.1178612544        5.3222738359       -5.0370030514
 H        -9.5288728122        4.2056772573       -5.3174635130
 H        -6.2316058653        4.3785219791       -2.8369278514
 H        -5.8712878330        3.4093836017       -4.0586214416
 H        -6.3991709355        2.6768559538       -2.6710963198
 H        -9.7644123603        9.2301113494        1.7258656536
 H        -8.8208694120        8.7053782682        0.5225070571
 H        -8.7056546659        7.9564029760        2.1179882375
 H        -9.2725516153        5.6506194301        1.8840603707
 H       -10.8925385307        5.2937600730        1.1770939466
 H       -10.6267928008        6.1500402450        2.8073564950
 H       -11.2270218549       11.7682508411       -0.3811008715
 H        -9.8657761816       12.4020147324        0.5698964890
 H       -10.7704726421       13.5958350634       -0.4195008048
 H       -10.7627226739       14.5364012350        2.1948421870
 H       -10.0882642417       12.8913213943        2.4186323126
 H       -11.6230288034       13.6161335374        3.4314592221
 Na       -8.3780538594        1.4625160704       -0.4809503747
