117

 C       -13.4214112999       14.7509310163        1.6710731434
 C       -12.8977911833       13.9745703202        0.4612800248
 O       -13.2950266438       14.0962945323       -0.6694437269
 C       -11.5608481560       13.0071388558        0.7390788108
 C       -12.0884096309       11.6751341586        1.4210486402
 O       -12.5427499693       11.8006461868        2.4762396676
 C       -12.1140917562       10.3551132404        0.6648840819
 C       -12.1281814055        9.2096799269        1.7448178068
 C       -11.9204187931        7.8953421554        0.8731887935
 O       -12.6996704794        7.1405666263        0.3685767304
 C       -10.4342899028        7.3599740780        0.6414185138
 C       -10.4432977249        6.7607302926       -0.8338692983
 O       -10.1166313017        7.4592100222       -1.7435739388
 C       -10.8284797150        5.2225435275       -1.1995453628
 C        -9.9914495825        4.9029842921       -2.4041520511
 C        -9.0205457486        3.7399972731       -2.2395276285
 O        -8.9231807581        3.0148033310       -1.2563266362
 C        -7.9537403710        3.6141451881       -3.3306824380
 C        -8.5595457348        2.2884147028       -4.0206879460
 O        -9.7732834608        2.3224876892       -4.1497226516
 C        -7.7147065974        1.0889365656       -4.4529246728
 C        -8.4821149651       -0.2866518016       -4.4353089074
 C        -9.0810978686       -0.5590574642       -3.0570864048
 O        -8.5016888424       -0.1134779291       -2.0284276267
 C       -10.2918459667       -1.4449879855       -2.8574892026
 C       -10.4995164533       -1.6352380566       -1.3002685210
 O       -10.6872939148       -0.6960688005       -0.5445024594
 C       -11.0199706164       -2.9645887752       -0.5941466317
 C       -10.1059391249       -4.1632989652       -0.2437739166
 C        -9.2611070788       -3.7911390824        0.9666658069
 O        -9.5946072910       -4.1539789202        2.1026708284
 C        -7.7411676099       -3.2130633461        0.8827979781
 C        -7.9368503813       -1.6537131805        1.3445021873
 O        -7.7611971447       -0.7522939292        0.5353881166
 C        -8.4070324245       -1.3831479199        2.7726004977
 C        -7.6701503895       -0.0716897719        3.1889598650
 C        -8.4933676643        1.1259450411        3.3151622939
 O        -9.1606433614        1.6600751308        2.4312558379
 C        -8.3941092683        1.9977386354        4.6513912105
 C        -6.9151770514        2.6852162314        4.8625944456
 O        -6.0307720488        2.3032749644        4.1578751891
 C        -6.5918005836        3.5599220468        6.1502687171
 C        -9.3813905110        3.2065973142        4.5631700886
 C        -8.6270593981        1.1152454825        5.8628838361
 C        -6.9264383630       -4.1831160045        1.7801840906
 C        -7.2513051646       -3.3541624938       -0.6153103531
 C       -11.5427414014       -0.7381223187       -3.4792991968
 C       -10.0788893399       -2.9450292128       -3.4039069802
 C        -8.0088937503        4.5905235541       -4.4492567443
 C        -6.4502672842        3.5696705075       -2.8932545934
 C        -9.3987964042        8.5102506254        0.7799757321
 C       -10.0163392704        6.3367543407        1.7495591274
 C       -10.7491141031       12.8098167943       -0.5219315007
 C       -10.5738253373       13.8516958400        1.6699015432
 H       -12.9653055123       14.2897959879        2.6689469403
 H       -14.4843509946       14.4753538568        1.6661939994
 H       -13.0525967036       15.8577251957        1.5196831270
 H       -11.3558162800       10.4092379396       -0.0433772412
 H       -13.1479244154       10.3592350588        0.2565003486
 H       -12.9941723540        8.9997025582        2.1961117750
 H       -11.0805591110        9.3979272938        2.2726062431
 H       -11.8449968231        5.2853213731       -1.3562152613
 H       -10.7381555425        4.5445108165       -0.3911873408
 H        -9.3822536753        5.8578276502       -2.7480791932
 H       -10.7019709431        4.7919005843       -3.2017253045
 H        -6.6901734408        1.0141191069       -3.9173405049
 H        -7.3738411158        1.3743822525       -5.5158979432
 H        -7.6827558145       -0.9664759248       -4.6261659744
 H        -9.1788663021       -0.2798742414       -5.1987241550
 H       -11.8638547609       -3.4974033470       -1.1376109478
 H       -11.5571719260       -2.7384718428        0.3204575649
 H        -9.6687208463       -4.4356859883       -1.1829112314
 H       -10.6524039122       -4.9829834746        0.2388205155
 H        -8.1140269934       -2.2471507364        3.4073864852
 H        -9.5169603347       -1.2271907282        2.6957712927
 H        -6.8145003355        0.3873102523        2.5985897470
 H        -7.2325474487       -0.1876976061        4.0916079548
 H        -5.5782099159        3.9133799030        6.1502867096
 H        -6.7779769499        2.9559791563        7.0423272769
 H        -7.3732069892        4.3212852846        6.2329795721
 H        -8.9666809336        3.7698816499        3.7816563009
 H        -9.1301387733        3.7355187493        5.5359363632
 H       -10.4158958685        2.9726642499        4.4151867380
 H        -9.4151670706        0.3941405501        5.6495188744
 H        -8.8618820963        1.7095958956        6.7653303868
 H        -7.8294246388        0.4632487212        6.0279775382
 H        -6.7501593880       -5.0256114815        1.1271912492
 H        -7.4472953242       -4.5470245835        2.7050735271
 H        -5.9565252641       -3.7204543127        1.9831324822
 H        -7.1735546104       -4.3931675846       -0.6729023873
 H        -6.2434296271       -2.9471753512       -0.8310429874
 H        -7.8788916259       -2.8644573638       -1.3487151382
 H       -12.4679296216       -1.4103381478       -3.2684771998
 H       -11.2624504644       -0.5038526134       -4.4942855344
 H       -11.7407308773        0.1712264379       -2.9531985573
 H        -9.5513260272       -3.2212814735       -4.2298376547
 H       -11.0359134552       -3.5173812328       -3.4930901545
 H        -9.6702708992       -3.5376088362       -2.6851455653
 H        -7.5793081489        4.2076454693       -5.4182683873
 H        -7.8425458199        5.6321965737       -4.2956175203
 H        -9.0869972768        4.5725917704       -4.7404312768
 H        -6.0465932117        4.4836968303       -2.3321300810
 H        -5.9348423194        3.4274286291       -3.7298102294
 H        -6.0405457654        2.7251950514       -2.2956214265
 H        -9.0092584060        8.5685416442        1.7841877255
 H       -10.0458106798        9.4198121748        0.7974424377
 H        -8.6948422337        8.6952739967        0.0442358379
 H        -9.0343824991        5.8138275543        1.6889053566
 H       -10.7844851987        5.7059278830        1.9282712589
 H       -10.0355357051        7.0719618951        2.6320801168
 H       -11.3682324088       12.5084430876       -1.3334234667
 H        -9.9469955723       12.0076645466       -0.3271877356
 H       -10.2479416206       13.6956831899       -0.9544883026
 H        -9.5971545464       13.2949840759        1.8712249785
 H       -11.1887156549       13.9804884340        2.5500478003
 H       -10.4731313845       14.7104836671        0.9833827359
 Na       -9.3489974579        1.1693611459       -0.0522284847
