117

 C       -13.4385187841       14.8987552447        1.4895933837
 C       -12.7955897717       13.9852858521        0.4149216947
 O       -13.1959260211       14.1031020365       -0.7457797815
 C       -11.4683851661       13.1376783287        0.6098084164
 C       -12.0031738881       11.8131408693        1.3194530918
 O       -12.4414819337       11.8477436969        2.4741114751
 C       -12.1895765173       10.2702483605        0.4936023531
 C       -12.0250837602        9.1332118137        1.5535557647
 C       -11.8664623911        7.8065163704        0.7270568126
 O       -12.8444669596        7.1687695187        0.3862644842
 C       -10.3903374788        7.3895450736        0.5979986449
 C       -10.3955796653        6.8014600375       -0.8587035543
 O       -10.0756925697        7.4325617098       -1.8831453183
 C       -10.8535975941        5.2768127092       -1.1343863145
 C        -9.9380601290        4.7958771561       -2.3105192765
 C        -8.8481276933        3.7870750206       -2.0132432050
 O        -8.9562411391        3.0181555841       -1.0933465415
 C        -8.0026493680        3.4812431364       -3.3120033255
 C        -8.7234597861        2.2359024665       -3.9716510595
 O        -9.8473310439        2.3305222745       -4.4277553648
 C        -7.8015576327        0.9858987428       -4.2802957119
 C        -8.5968841147       -0.2932336652       -4.4201231088
 C        -9.1066137853       -0.5698586530       -2.9235009185
 O        -8.7911341475        0.1973277344       -2.1290775336
 C       -10.4300052555       -1.5527970181       -2.7573351531
 C       -10.7187824211       -1.6188865944       -1.2630471949
 O       -10.7372460011       -0.5912494605       -0.6143302500
 C       -11.1168579118       -3.0242708454       -0.7029438160
 C       -10.1052587948       -4.1823497068       -0.2950962476
 C        -9.2661888358       -3.9191162403        0.9683750465
 O        -9.6576547557       -4.1089249157        2.0998596791
 C        -7.7621613101       -3.3255596386        0.9373670916
 C        -7.8049277516       -1.7237011389        1.5831700234
 O        -7.5745296474       -0.8218245056        0.8129380518
 C        -8.1756845190       -1.3856327633        2.9844111774
 C        -7.4964904544        0.0053451292        3.2406556164
 C        -8.4295007045        1.2723326566        3.2927677109
 O        -9.3694531689        1.5429550802        2.4788404060
 C        -8.2720962510        2.0211413232        4.7099003446
 C        -6.7851470613        2.5234276338        4.8959581561
 O        -5.9561184629        2.2745303394        4.0364438688
 C        -6.5461154651        3.3700647020        6.0767848300
 C        -9.4394355382        3.0672923434        4.7598568690
 C        -8.5868658975        0.9186317417        5.7832471640
 C        -6.8560525082       -4.1476864829        1.8675519937
 C        -7.1739395588       -3.1772763888       -0.4977238304
 C       -11.5666465995       -0.7745692821       -3.3682403856
 C       -10.3446975671       -2.8723002416       -3.5415556589
 C        -8.0944376569        4.6837375133       -4.3691061832
 C        -6.5505936993        3.3602365867       -2.7342788064
 C        -9.2215794677        8.4941993183        0.5865847289
 C       -10.1602952092        6.4466288744        1.7509929663
 C       -10.8625894643       12.9006359139       -0.8061676894
 C       -10.4736665655       13.8817878712        1.5139310027
 H       -13.2639611982       14.5538601086        2.4891033910
 H       -14.4816733404       14.7185756903        1.2401845495
 H       -12.9993876569       15.8064874684        1.3203290417
 H       -11.4781390658       10.3569416372       -0.3372643985
 H       -13.2479380688       10.1728815633        0.2196818826
 H       -12.9837379747        8.8058786785        1.9926241091
 H       -11.1216610635        9.3247131214        2.1264238432
 H       -11.9932402247        5.2272108037       -1.1817401755
 H       -10.6235237027        4.6698435260       -0.2842092371
 H        -9.6848815244        5.5962117169       -2.8887016896
 H       -10.5878914192        4.0996998650       -2.8950173101
 H        -7.0788512142        0.9331496012       -3.4753425460
 H        -7.1752171532        1.1403836538       -5.0929593485
 H        -7.8796047363       -0.9797818264       -4.8418017905
 H        -9.3412586485       -0.0292795634       -5.2424446270
 H       -11.7699012962       -3.4764365220       -1.3256419129
 H       -11.7690695770       -2.9710244746        0.1482466007
 H        -9.5477126852       -4.3892191367       -1.1791311077
 H       -10.6376268240       -5.0344619823        0.1422270790
 H        -7.8019172482       -2.2005686870        3.6691753567
 H        -9.2536361652       -1.3361430248        2.8884816292
 H        -6.6991336452        0.3183947781        2.4869083959
 H        -6.8386308777        0.0355937421        4.2061319535
 H        -5.9312996607        4.1622412977        5.6684274035
 H        -6.0214406579        2.9747531947        6.9585509855
 H        -7.4738155260        3.7383923690        6.4088751500
 H        -9.1371898459        3.7890905463        3.9453023862
 H        -9.4953577153        3.4879373451        5.7271254183
 H       -10.3910263183        2.5133858949        4.4965146776
 H        -9.0946204184        0.0801090673        5.3157078863
 H        -9.1717502750        1.3710294632        6.6240240656
 H        -7.7037769843        0.3370719172        6.1938244256
 H        -7.0860239498       -5.2375882320        1.6207937236
 H        -7.0774974703       -3.9819972495        2.8700052842
 H        -5.7479309223       -3.9157523558        1.6124781839
 H        -7.2243829173       -4.1333592160       -0.9138773870
 H        -6.0873882263       -2.9283422705       -0.4943905465
 H        -7.6492762912       -2.3351533438       -1.0533829313
 H       -12.5106778132       -1.1450067521       -2.8681949797
 H       -11.3739205825       -0.8659895023       -4.4606096397
 H       -11.5486294121        0.2688560896       -3.1225786414
 H       -10.1713274521       -2.6834833897       -4.5920477332
 H       -11.0542183282       -3.6302092593       -3.2930200077
 H        -9.4644265241       -3.4397516109       -3.4063708374
 H        -7.4364207695        4.5368436214       -5.2441757082
 H        -7.9971973875        5.6623010914       -3.9387486476
 H        -9.0456213066        4.7090222945       -4.8379229066
 H        -6.1842824025        4.1918215628       -2.0781825354
 H        -5.8013284280        3.0724723406       -3.5820394615
 H        -6.3482661951        2.4997037096       -2.0732168076
 H        -8.6328506715        8.4504696390        1.4680426276
 H        -9.6543872692        9.5448574735        0.5127157051
 H        -8.7105512871        8.4571496433       -0.3403579738
 H        -9.1610189404        5.9489500713        1.7974716952
 H       -11.0305914931        5.7328970721        1.7387375132
 H       -10.3687402736        7.0338472619        2.6390578882
 H       -11.2774099896       12.1016149602       -1.4661214414
 H        -9.7947521910       12.6413432728       -0.5535292731
 H       -10.8440172286       13.7845824249       -1.4805855184
 H        -9.9257840378       13.0398342020        2.0861733492
 H       -11.2607701113       14.3037454501        2.2223909437
 H        -9.8412986889       14.4943185477        0.8608452012
 Na       -9.2312962952        1.3635182141        0.1329142701
