117

 C       -13.3105231382       14.9108685766        1.2854783443
 C       -12.7696640855       14.0927536092        0.0376076752
 O       -13.2920146232       14.1413020552       -1.0507897009
 C       -11.4838694360       13.2477110728        0.3253048873
 C       -12.0132046800       11.8817859039        1.1410526144
 O       -12.1041650116       12.0254951702        2.3181577398
 C       -12.1364901118       10.6173349517        0.3072058670
 C       -12.2028866524        9.4416033642        1.2231756134
 C       -11.7761518724        8.0995457199        0.6842118207
 O       -12.6707612997        7.3494675306        0.3899765811
 C       -10.3528527799        7.5085870959        0.4317050357
 C       -10.4856970960        6.7568440880       -1.0169313076
 O        -9.9137539815        7.2725854448       -1.9306545846
 C       -10.7984053731        5.2113734382       -1.0241341366
 C       -10.5193012060        4.4124075485       -2.3310763820
 C        -9.1143008158        3.6668387194       -2.0562726730
 O        -8.7639987856        3.4376255754       -0.9046277108
 C        -8.0579270409        3.2818382396       -3.2193145598
 C        -8.6195073466        2.1845427441       -4.1699664994
 O        -9.7099219312        2.2678427642       -4.7029954888
 C        -7.8040949155        0.9076104402       -4.4016279411
 C        -8.7892282569       -0.3203310841       -4.2889000759
 C        -9.5111815719       -0.3586125223       -2.8985842311
 O        -9.3114551593        0.3948533148       -1.8908170696
 C       -10.7255267668       -1.4101999888       -2.7164986580
 C       -10.9864921355       -1.7000198905       -1.1874267158
 O       -10.7848177667       -0.8443104192       -0.3492626324
 C       -11.1772926473       -3.0403675331       -0.5634979946
 C        -9.9295400699       -3.8799855754       -0.3569342646
 C        -9.2794438865       -3.6513845364        1.0315336838
 O        -9.8662173060       -3.9857043461        2.0207520933
 C        -7.7913957852       -3.1265177685        1.0885473416
 C        -7.6196486860       -1.7075553265        1.5077343851
 O        -7.4982654864       -0.7163631515        0.7681161175
 C        -7.7468002554       -1.4085326817        3.0636452388
 C        -7.2667247182       -0.0129973593        3.2290648386
 C        -8.3827776946        1.0526550164        3.4428720389
 O        -9.2103145237        1.2268156361        2.6215775476
 C        -8.2739103595        1.8099898916        4.8839558728
 C        -6.8486967453        2.4057969933        4.9138151712
 O        -6.1736775059        2.2785452137        3.9277696521
 C        -6.4107316265        3.2454231326        6.1381987099
 C        -9.3324843870        2.9956138273        5.0150227345
 C        -8.4547688032        0.7599506743        5.9897310891
 C        -6.8472250190       -4.2049135929        1.9903010176
 C        -7.1616417807       -3.2261476714       -0.3245892195
 C       -11.9779852147       -0.6269376956       -3.2286064074
 C       -10.3778694001       -2.5896806558       -3.5406336935
 C        -7.8801949325        4.5993244426       -4.0599323968
 C        -6.7632565850        2.9164172730       -2.6121090611
 C        -9.2220931987        8.5602426472        0.5374021510
 C       -10.1717693010        6.4745781452        1.6069205332
 C       -10.8280264767       12.8433444442       -1.0139180513
 C       -10.4071487342       13.7793946408        1.2792152151
 H       -13.3763213262       14.2584857820        2.2118160546
 H       -14.2361838012       15.3539829956        1.1358674341
 H       -12.3661458838       15.4909437122        1.4225736570
 H       -11.3998961471       10.7126990762       -0.4660617705
 H       -13.1541760311       10.7112326419       -0.1094418653
 H       -13.1968168886        9.3101122206        1.5957605620
 H       -11.3615692937        9.5970915105        2.0457154872
 H       -11.7974049092        4.9727666531       -0.6733125498
 H       -10.1976791989        4.6892167073       -0.1838400790
 H       -10.3817485454        5.1426910129       -3.2566075920
 H       -11.3388089500        3.7236475358       -2.3913248135
 H        -6.8896393381        0.9100012820       -3.7679162430
 H        -7.2367774992        0.9492250412       -5.3712129020
 H        -8.2200930611       -1.2799180435       -4.5241971442
 H        -9.4693281924       -0.1131545471       -5.0722853649
 H       -12.0846515961       -3.6744117537       -0.9298972049
 H       -11.5641473156       -2.9533827669        0.4480202020
 H        -9.2221850361       -3.4287036083       -1.0839820153
 H       -10.0216891313       -4.9765274251       -0.3910068265
 H        -7.0929574415       -2.0194315329        3.6218846624
 H        -8.8231122568       -1.5473913884        3.2410702044
 H        -6.5454921572        0.2265250129        2.4515054082
 H        -6.6774949246        0.0128911338        4.0321387666
 H        -6.7658982504        4.2895900251        6.1115157428
 H        -5.3231250425        3.3052223570        6.0888140892
 H        -6.6737067116        2.7641625280        7.1188965725
 H        -9.1694273103        3.6983756930        4.2529325097
 H        -9.3244024127        3.3923369342        6.0795730962
 H       -10.2303725851        2.4496967066        4.9158198073
 H        -8.9488867919       -0.1691084888        5.6202489009
 H        -8.9523805501        1.2215923160        6.8394921543
 H        -7.5403995611        0.3291854999        6.3206782445
 H        -7.2819076536       -5.1598542462        2.0483412427
 H        -6.6347683486       -3.7926971814        3.0277190253
 H        -5.9641620458       -4.2095573771        1.4469140962
 H        -6.9845377800       -4.2682349330       -0.6849788715
 H        -6.1791539754       -2.7499565136       -0.3097123586
 H        -7.7660957133       -2.5929875022       -0.9705814101
 H       -12.8657298494       -1.0491638769       -2.7831411176
 H       -11.7739820638       -0.5789252169       -4.2718969655
 H       -12.1117641233        0.4229002796       -2.8843051179
 H       -10.5428923136       -2.4399573748       -4.6114154518
 H       -10.6238803063       -3.6289505029       -3.0895476059
 H        -9.2878176898       -2.7785121780       -3.8112500578
 H        -7.0070769822        4.4158052893       -4.6725838372
 H        -7.6420473424        5.4525034130       -3.4471199775
 H        -8.7317076770        4.9252348250       -4.7102983795
 H        -6.3950965406        3.7703673750       -2.0680764806
 H        -6.1036294321        2.5612049570       -3.2527499275
 H        -6.7441504279        2.2324439229       -1.7399831715
 H        -8.9339694666        8.5210072472        1.6270876575
 H        -9.4041472554        9.4952303157        0.0218552086
 H        -8.3692300688        8.2459692006       -0.1161769743
 H        -9.2406683734        6.0331017992        1.3148404497
 H       -10.9118548626        5.7693578282        1.6086176052
 H       -10.2248371086        6.8962456337        2.6430568775
 H       -11.3190352861       12.0294471660       -1.4709153886
 H        -9.7705228486       12.6026143410       -0.9432819231
 H       -10.9223921587       13.5899306421       -1.8019892012
 H        -9.9694920986       12.8442633300        1.4113238111
 H       -10.8038001696       14.2640087988        2.0904945484
 H        -9.7076065829       14.3029853084        0.6630098802
 Na       -8.9908715635        0.9961007574        0.3872379226
