117

 C       -13.2222126215       14.8106360892        0.9933172077
 C       -12.6262386527       14.1639054614       -0.2653771120
 O       -13.2412852851       14.1218666361       -1.3196080810
 C       -11.2642029409       13.3591422922       -0.2540923995
 C       -11.6637163485       12.0856443751        0.6684534763
 O       -11.8381797257       12.1599976918        1.8294455376
 C       -11.8483727331       10.7151693231       -0.1262630290
 C       -12.1188248128        9.6119378709        0.8811786320
 C       -11.8740936795        8.1204859040        0.2934906986
 O       -12.7818020462        7.3754976144        0.0848753132
 C       -10.3641116838        7.6103320112        0.2302050362
 C       -10.1976314804        6.4863053683       -0.9363285737
 O        -9.5741012999        6.6835877197       -1.9635614237
 C       -10.9769227452        5.0905436107       -0.9793933658
 C       -10.4024505515        4.3022132803       -2.1382251546
 C        -9.1651784098        3.3635138655       -1.7245803932
 O        -9.2044203971        2.8955614693       -0.5849488497
 C        -8.0760468336        3.2313546117       -2.7693009455
 C        -8.7506244220        2.3076930801       -3.9490546637
 O        -9.7109028096        2.7252366728       -4.5731376560
 C        -8.2475869775        0.9038713793       -4.2639823596
 C        -9.3735851903       -0.1627211292       -4.1949745119
 C       -10.0507133415       -0.1743353662       -2.7880536640
 O        -9.8870898448        0.7287198886       -1.9839888802
 C       -11.0600843678       -1.2833934837       -2.3025570229
 C       -10.9810946609       -1.6974928180       -0.8225880051
 O       -10.7167640676       -0.8297040478       -0.0585183826
 C       -11.2647185415       -3.1688298244       -0.4449589364
 C        -9.9627041868       -3.9676734526       -0.4640495116
 C        -9.1720229471       -3.3871633643        0.8786158445
 O        -9.7364833558       -2.8491689854        1.7889751046
 C        -7.5262548670       -3.5098976304        0.9946448692
 C        -7.3400524994       -1.9400203238        1.4097135227
 O        -7.3787182894       -1.0559620965        0.5720141506
 C        -7.4770162361       -1.5954642472        2.9661300266
 C        -7.0083951427       -0.2042217210        3.3913517239
 C        -8.1215579860        0.8559923247        3.6842302123
 O        -8.9465354222        0.9483756834        2.8063867340
 C        -8.1240624422        1.5781279683        5.0616709454
 C        -6.8243848827        2.7084506811        5.1727414817
 O        -6.3593078032        3.1145540193        4.1441406232
 C        -6.2565399374        3.1358326953        6.4791798152
 C        -9.3488956164        2.5102490664        5.0671003555
 C        -8.1219137730        0.6441002521        6.3123828055
 C        -7.1165878750       -4.5776201022        1.9735335589
 C        -6.7994158868       -3.7515501226       -0.3712957770
 C       -12.3022924271       -0.3045508068       -2.3471100736
 C       -11.0803720456       -2.4312641687       -3.3539084033
 C        -7.7557101882        4.6129234991       -3.5630253596
 C        -6.7491282326        2.5911749249       -2.2457782354
 C        -9.2448308854        8.6235628862        0.0717590833
 C       -10.1669121925        6.7427177142        1.5508706847
 C       -10.7906326946       13.0070017170       -1.7334284709
 C       -10.1924114486       14.0897791975        0.5213955987
 H       -13.0980190850       14.2153854201        1.8333931622
 H       -14.2516474951       15.1679383602        0.7966277987
 H       -12.6170976421       15.6608209735        1.0382835791
 H       -10.9613352303       10.4616164707       -0.7042689667
 H       -12.5574156130       11.0397030962       -0.9272048395
 H       -13.0189945492        9.6223602839        1.3776584797
 H       -11.4427868872        9.7204286330        1.8642245653
 H       -12.0204526913        5.3040264344       -1.3038633537
 H       -11.0236846313        4.3911433607       -0.0412422164
 H       -10.1940722092        5.0864780915       -2.9813691466
 H       -10.9903491220        3.5255761025       -2.5486844724
 H        -7.4079412387        0.5470614795       -3.6386266718
 H        -7.8089092339        1.0584556706       -5.2283784962
 H        -8.7959230527       -1.1738995372       -4.4139153986
 H       -10.0832568128       -0.0255284109       -5.0149124616
 H       -12.0870327471       -3.8429810806       -0.8430862816
 H       -11.4152072910       -3.0285848339        0.6168599959
 H        -9.3179223970       -3.7220042340       -1.3280299236
 H       -10.1894908868       -5.0401831098       -0.3101022733
 H        -6.8957630466       -2.3580320466        3.3968162616
 H        -8.5303754703       -1.6252664816        3.2734884175
 H        -6.3181521571        0.2648424992        2.6395277756
 H        -6.4094650221       -0.2514421325        4.2198739974
 H        -6.8266093720        2.8881311482        7.3500275545
 H        -5.9520826180        4.1800364141        6.4216326178
 H        -5.3396726106        2.5470812013        6.5698131341
 H        -9.1517811652        3.0560422152        4.1630256054
 H        -9.4187770685        3.1925826933        6.0014301224
 H       -10.2421972949        1.8826096524        5.0295838234
 H        -9.1143049681        0.4106693585        6.8172720741
 H        -7.4547908080        1.1649194319        7.0821962481
 H        -7.5239574624       -0.2571474050        6.1074981625
 H        -6.5140648147       -5.1808453876        1.3075071362
 H        -7.9115228983       -5.2435653931        2.3407306815
 H        -6.4666892162       -4.1346758016        2.7483037633
 H        -7.3523056484       -4.5495336224       -0.8334352722
 H        -5.7575419092       -4.1123346926       -0.2040889148
 H        -6.8090333429       -2.9079457093       -1.0786711044
 H       -13.2421578850       -0.8976598832       -1.9810150086
 H       -12.4639743217        0.2607557912       -3.3123129563
 H       -12.2147883199        0.4029631040       -1.5169070757
 H       -11.5086174010       -2.2650303083       -4.4579517683
 H       -11.5751717310       -3.4081999251       -2.8828690502
 H        -9.9913893013       -2.6038843345       -3.5865860538
 H        -6.9650961109        4.4251538846       -4.2935804570
 H        -7.4861102612        5.4684692439       -3.0254808200
 H        -8.6674814417        4.8308732757       -4.0692794548
 H        -6.0408257926        3.3953556191       -1.7965611651
 H        -6.1278914839        2.1932362446       -3.0118133757
 H        -6.8246037828        1.9334770927       -1.3561464663
 H        -9.5840583271        9.3914115039        0.8095790935
 H        -9.1453008202        8.9035170277       -1.0503539971
 H        -8.3398721658        8.3240537529        0.5522680973
 H        -9.1214774333        6.3327074896        1.6140943342
 H       -10.9072451174        6.0239098343        1.5312279683
 H       -10.3768126437        7.4154674442        2.4726114124
 H       -10.6459385416       14.0014672689       -2.1446523700
 H       -11.6101906652       12.6379616927       -2.4352419873
 H        -9.8763170971       12.4270787084       -2.0254649497
 H        -9.3037895880       13.4930419502        0.2206043975
 H       -10.5711782860       14.0065411376        1.5061554676
 H       -10.1195412397       15.1497152020        0.2718251902
 Na       -9.1547378321        0.9752313737        0.4968546613
