117

 C       -13.1628820553       14.7428029357        0.8663703370
 C       -12.6725157470       14.1489365385       -0.4506663267
 O       -13.3690764242       14.1654726797       -1.4423956331
 C       -11.2475387101       13.3514350122       -0.3283599231
 C       -11.6236931561       12.0800967579        0.4433538227
 O       -11.6352500600       12.1560144957        1.6759873827
 C       -11.7558318533       10.7335892399       -0.3207927806
 C       -12.0719828520        9.6585241600        0.6660880101
 C       -11.7261316932        8.1754278025        0.1271842109
 O       -12.7539040429        7.5200240223        0.0117732729
 C       -10.3034335690        7.5255807429        0.1559019224
 C       -10.1483912637        6.4361446300       -1.0279371888
 O        -9.4252852308        6.6239264053       -1.9966654998
 C       -10.9296992487        5.1283609422       -0.9292015386
 C       -10.6433881298        4.1424241584       -2.0841609487
 C        -9.3096012110        3.3809919163       -1.7068978090
 O        -9.2448525884        2.8695736653       -0.6093424343
 C        -8.0335080386        3.2554466190       -2.8197460270
 C        -8.7503535447        2.2652471594       -3.8274427177
 O        -9.7396354049        2.8231502568       -4.2611486120
 C        -8.3618938873        0.7633160715       -4.1925461525
 C        -9.6234217825       -0.0889762779       -4.1060781054
 C       -10.0854880108       -0.1330957556       -2.6504861666
 O        -9.8283981906        0.8153122316       -1.9654857483
 C       -11.1697331476       -1.1891283531       -2.3451023469
 C       -10.9200835155       -1.7078503448       -0.9145197916
 O       -10.5866639121       -0.9467592257       -0.0025285018
 C       -11.2402262083       -3.1517907366       -0.5038891093
 C        -9.8988123482       -3.8449271176       -0.2577902417
 C        -9.0344008472       -3.3537840393        0.8933751615
 O        -9.6998409221       -2.7992215109        1.7730207116
 C        -7.5076021895       -3.5225153458        0.9966970958
 C        -7.2742775510       -1.9603019544        1.5302784976
 O        -7.2627946476       -1.0719278758        0.7176553948
 C        -7.3687271327       -1.5798488869        3.0506316760
 C        -6.7903750433       -0.1749898695        3.3706429408
 C        -7.9835624371        0.8068669699        3.7252773368
 O        -8.9259096919        1.0700246072        2.9059592121
 C        -7.9443038454        1.5481982606        4.9967182617
 C        -6.7718109573        2.6288938640        5.1025671403
 O        -6.5122032453        3.2296078082        4.0798544993
 C        -6.3495202783        3.0651802667        6.4895541372
 C        -9.3583409870        2.4650780487        5.0417942968
 C        -8.0188677754        0.4011152909        6.0660799497
 C        -7.1695364693       -4.5829646910        2.0229691035
 C        -7.0183079884       -3.7978529675       -0.4234736561
 C       -12.5484338194       -0.3632956986       -2.2238950846
 C       -11.4878389795       -2.3546412203       -3.4156716224
 C        -7.5987547047        4.6116864562       -3.3126452032
 C        -6.8411725545        2.6694779125       -2.0764804313
 C        -9.1184401604        8.6745916950        0.1245937099
 C       -10.2624447556        6.8973131800        1.5796641982
 C       -10.9233214227       12.9798153611       -1.7658855495
 C       -10.0575721995       14.0466220387        0.4597730439
 H       -12.6359648800       14.0005542254        1.5259260819
 H       -14.3255718097       14.6965874628        0.9635885608
 H       -12.8370671022       15.8061770056        1.0522364854
 H       -10.8552267782       10.5325855957       -0.7938169405
 H       -12.4308814247       10.9762674252       -1.1852207445
 H       -13.1936322780        9.5799733920        0.8796797314
 H       -11.8348229264        9.7592199209        1.7501404473
 H       -12.0316852647        5.2595951673       -0.8724024529
 H       -10.5972140763        4.6040122941       -0.0311428452
 H       -10.4608319973        4.7067908199       -2.9937971778
 H       -11.2919406803        3.2165407258       -2.3401864909
 H        -7.4677728059        0.3337165706       -3.5807141947
 H        -7.9729889293        0.9030516008       -5.2980308872
 H        -9.4125474012       -1.0570935303       -4.5371547734
 H       -10.3277603115        0.4096209662       -4.7945967418
 H       -11.7496949804       -3.8765835368       -1.1762745286
 H       -11.8538752755       -3.0195350170        0.5012863347
 H        -9.3225700286       -3.7710346679       -1.1754893625
 H       -10.0991616896       -4.9023531729        0.0505039688
 H        -7.0028113136       -2.4392637742        3.6288776550
 H        -8.4179647915       -1.4268487266        3.2100849442
 H        -6.3494949054        0.2711392226        2.5724466354
 H        -6.0534086690       -0.1119809369        4.1896527147
 H        -7.1463509083        2.8134464696        7.1976858176
 H        -6.0332737157        4.1465770247        6.4606737328
 H        -5.4933823786        2.5131185917        6.8693222133
 H        -9.2887919866        3.2001579546        4.2181633390
 H        -9.3739289962        2.9232562069        5.9863607994
 H       -10.2154962540        1.7552381123        4.9989186521
 H        -9.0366252954        0.0477498443        6.1172978293
 H        -7.7099825354        0.6773043119        7.1023772296
 H        -7.2727766899       -0.3774945152        5.7739747190
 H        -6.4765891271       -5.2186313547        1.4815441858
 H        -7.9457015401       -5.1404334516        2.3639266912
 H        -6.6093257841       -4.0447961232        2.7976767220
 H        -7.4975471768       -4.7049354585       -0.6403361798
 H        -5.9046016197       -3.9440565840       -0.4238324057
 H        -7.3192052432       -3.0979795207       -1.2427016379
 H       -13.2186910358       -0.8893146156       -1.4927840456
 H       -13.0821730940       -0.1528337488       -3.2178202673
 H       -12.3716080665        0.5990710492       -1.7469577861
 H       -12.2434322958       -2.2251769878       -4.2767804581
 H       -11.7912639312       -3.2120959434       -2.8966391258
 H       -10.4905183557       -2.5747321498       -3.9760629111
 H        -6.5517666832        4.6450461027       -3.6784641507
 H        -7.6557409241        5.3257875270       -2.5023748377
 H        -8.2929145937        4.9503237754       -4.0252948948
 H        -6.1499653165        3.3269563957       -1.5908495015
 H        -6.1335971361        2.0557666427       -2.6951227196
 H        -7.2369851727        2.0689234676       -1.3474739008
 H        -9.1665470241        9.0317859480        1.1732259454
 H        -9.4937957850        9.3998672322       -0.6949712452
 H        -8.0828536872        8.3482869821       -0.0102828766
 H        -9.2393287892        6.6611504117        1.8354898139
 H       -10.9722862969        6.0205757763        1.6571888220
 H       -10.5626927183        7.6647589083        2.2461585068
 H        -9.9797559686       13.4127729362       -2.0556195732
 H       -11.5487921955       13.1745812395       -2.6431690417
 H       -10.6182279196       11.9511919685       -1.8483316466
 H        -9.4079684043       13.2398829401        0.7326703795
 H       -10.5937984517       14.5102648833        1.2558650299
 H        -9.5944201464       14.7378636698       -0.1383355117
 Na       -9.1869631894        0.9179678505        0.6314128613
