117

 C       -13.1473086931       14.7574256939        0.8704695039
 C       -12.6616683817       14.0456359134       -0.5399159329
 O       -13.3367126137       14.1987154142       -1.5034975902
 C       -11.2241217683       13.3245368468       -0.5235286813
 C       -11.5148080202       12.0543717779        0.2657986467
 O       -11.5038301032       12.0623985652        1.5239824580
 C       -11.6943658462       10.7391017822       -0.4588550711
 C       -11.9867453546        9.6261698162        0.5234343291
 C       -11.7846345827        8.1876109198        0.0684893393
 O       -12.6325940311        7.3843883784       -0.2571355800
 C       -10.3673773450        7.5810187722        0.1611210997
 C       -10.0923949944        6.4990770569       -1.0218620165
 O        -9.2943430078        6.7351851575       -1.8969228506
 C       -10.8790457151        5.2522267640       -0.8436030369
 C       -10.7014639209        4.1201106831       -1.9045358986
 C        -9.3308903969        3.4489112188       -1.6645559062
 O        -9.1903064874        2.9222334278       -0.5603642877
 C        -8.1329886525        3.2134293537       -2.5862854812
 C        -8.8105600344        2.3776744017       -3.7402467977
 O        -9.8527567631        2.7119632880       -4.2519127553
 C        -8.4069587125        0.9647371825       -4.1449972635
 C        -9.7196669927        0.0943607772       -4.1613048954
 C       -10.3204817068       -0.0248790436       -2.7357357141
 O        -9.7690485824        0.6215042867       -1.8620139800
 C       -11.4874009178       -1.1183266499       -2.2987958548
 C       -11.0092114151       -1.6953778617       -0.8265189799
 O       -10.4010863871       -0.9833814160        0.0065167615
 C       -11.1755635128       -3.2056064512       -0.4755988569
 C        -9.8884894545       -4.0311967308       -0.2415074500
 C        -9.2086264970       -3.2673375909        1.0415660465
 O        -9.7768473429       -2.7709307271        1.9825787460
 C        -7.5352166047       -3.3786539568        1.0297633093
 C        -7.1754937460       -1.9232525155        1.5501962711
 O        -7.0970573419       -1.0133049641        0.7439513441
 C        -7.2420830129       -1.6234481093        3.0383430984
 C        -6.7603452977       -0.1353795761        3.1700283760
 C        -7.8188920190        0.9016518895        3.5322093338
 O        -8.8033674378        1.0538265400        2.8348067017
 C        -7.8933779662        1.4736111297        4.9737919064
 C        -6.9459036522        2.6339503167        5.0725022646
 O        -6.5896210198        3.2405362277        4.0695285290
 C        -6.4188199623        2.9774432223        6.5110825116
 C        -9.2247131909        2.2988331310        5.1677196821
 C        -7.9175214021        0.3259663988        5.9937382340
 C        -7.1776166740       -4.5851474700        2.1191793290
 C        -7.0045436927       -3.6860323134       -0.3635231727
 C       -12.8854129079       -0.4336678954       -2.0471660372
 C       -11.7307561874       -2.1102846296       -3.4089811137
 C        -7.5730295693        4.5521843741       -3.1388481174
 C        -6.8637098865        2.5138396877       -1.7461751979
 C        -9.0920964047        8.5359054216        0.0676143807
 C       -10.3133028628        6.9681545849        1.5448128989
 C       -10.8051615040       13.1600686592       -2.0516635676
 C       -10.1596762765       14.1029078423        0.2299254146
 H       -12.5522719356       14.1368665773        1.6598597820
 H       -14.2183800457       14.5683197240        0.9339910237
 H       -13.0128457543       15.9545126858        0.9199395126
 H       -10.7798888384       10.5742872890       -1.0552548470
 H       -12.4337733739       10.9136210098       -1.1719548218
 H       -13.0298706355        9.8464911836        1.0175577980
 H       -11.5148040484        9.5654070492        1.4011106944
 H       -11.9353779460        5.4546431114       -0.8720193424
 H       -10.6462020401        4.7937195972        0.0416866803
 H       -10.7016404640        4.4369764268       -2.8994665874
 H       -11.4041126823        3.2171172412       -1.8202369345
 H        -7.7028332306        0.5945483730       -3.3425259111
 H        -7.8324221614        0.8920756709       -5.1503253373
 H        -9.5090612370       -0.8349885345       -4.5368257292
 H       -10.3433270337        0.5727392222       -4.9426897750
 H       -11.6302437974       -3.6404001967       -1.3916315946
 H       -11.9078099340       -3.3763766378        0.3630365820
 H        -9.1943279910       -3.9535531497       -1.0726271401
 H       -10.0080984620       -5.0694571487        0.0795542830
 H        -6.4784863135       -2.2550090055        3.5824864267
 H        -8.2537105575       -1.8588168904        3.3624507451
 H        -6.3008996989        0.1969007525        2.2546847647
 H        -5.9619165617       -0.1016238522        3.9879611968
 H        -7.2425018122        2.9467602821        7.2702345814
 H        -5.9012873502        3.9378861748        6.4673089976
 H        -5.6867436880        2.2710229878        6.9522713474
 H        -9.1777622044        3.1546874643        4.4913572164
 H        -9.0892737556        2.6268074628        6.1566183266
 H       -10.1128730046        1.6753638318        5.0695898743
 H        -8.7217529360       -0.2717495463        5.6380691288
 H        -8.1417733400        0.5138716793        6.9884327763
 H        -6.9465354645       -0.1470482129        5.9332342697
 H        -6.5960803164       -5.3374115030        1.6429535425
 H        -8.1404949657       -5.0350250926        2.4027658162
 H        -6.7211164200       -4.2065077653        2.9698622096
 H        -7.1913478200       -4.7802115294       -0.5634044896
 H        -5.9736992597       -3.4877624720       -0.2567724925
 H        -7.3969147538       -3.1687935940       -1.2345008570
 H       -13.5481088196       -0.8510758173       -1.3454449542
 H       -13.4714160529       -0.2986176856       -2.9792736853
 H       -12.6106789813        0.6052183030       -1.7295986101
 H       -12.3275776040       -1.6820379099       -4.1509404552
 H       -12.3947043856       -2.8684464763       -3.1243734304
 H       -10.8084240511       -2.5209078462       -3.8777742787
 H        -6.5365293490        4.4794977348       -3.4087450645
 H        -7.6382365003        5.3632294347       -2.3337457677
 H        -8.2344974404        4.8970839398       -3.9870462842
 H        -6.2966311229        3.1908776987       -1.1736831241
 H        -6.1173278241        2.1728285841       -2.4462006967
 H        -7.2208308523        1.6056758217       -1.2233767394
 H        -8.6348744058        8.7173329020        1.0406773572
 H        -9.3564816298        9.3219856319       -0.5337351266
 H        -8.3133288548        7.8910403143       -0.4681883451
 H        -9.3362475124        6.6486365582        1.7950085121
 H       -11.0818914485        6.1403760095        1.5984959621
 H       -10.4848719411        7.7471768844        2.2184202411
 H        -9.7430506194       13.0055154820       -2.2122500066
 H       -11.1253278258       13.7107475921       -2.8604852396
 H       -11.0799742028       12.1257734744       -2.2581192521
 H        -9.6712686120       13.4611829216        0.9035991101
 H       -10.5996745562       14.9568871190        0.7411794152
 H        -9.5307894960       14.4254215495       -0.5747660582
 Na       -9.1797154666        0.7594731796        0.6712722080
