117

 C       -12.9836178834       14.5282429975        0.6977355299
 C       -12.6383955398       14.1414240874       -0.6930551418
 O       -13.3463027564       14.1741054219       -1.7025187297
 C       -11.1884114198       13.4290479902       -0.8601893030
 C       -11.2668451273       12.0369282347       -0.1125096236
 O       -11.2124082878       12.0208127465        1.0756898525
 C       -11.7130435546       10.6886812034       -0.7672745678
 C       -11.9158358422        9.6440977843        0.3591779011
 C       -11.6315904131        8.1672692797       -0.1057532102
 O       -12.4917381081        7.5845155093       -0.7234327943
 C       -10.2143437857        7.5206030491        0.1470574981
 C       -10.0032578025        6.4470177144       -0.8839815026
 O        -9.2573710290        6.5744979600       -1.8718437894
 C       -10.9462660309        5.3261219973       -0.7496784545
 C       -10.5203714762        4.2548975899       -1.7322501930
 C        -9.2761418959        3.3672075756       -1.1833304682
 O        -9.2646701754        2.9596994278       -0.0286343830
 C        -8.2273921722        3.0435065753       -2.1962589396
 C        -9.0402284652        2.3921899716       -3.4903227224
 O        -9.7702440343        3.0541599705       -4.1953577262
 C        -8.7427261009        0.9195618071       -3.9822515722
 C       -10.0333234631        0.0597358364       -3.9647044763
 C       -10.4420226962       -0.1078429331       -2.5058543609
 O        -9.7800118143        0.5750608871       -1.7418091447
 C       -11.6633401649       -1.0461914675       -2.1565765597
 C       -11.1116328016       -1.8455189221       -0.8653763559
 O       -10.4091631746       -1.2203115534       -0.1328708220
 C       -11.4283729434       -3.3428258291       -0.7241285276
 C       -10.1756603534       -3.9610853014       -0.1323205120
 C        -9.3171133542       -3.2421507316        1.1480637167
 O        -9.9035731451       -3.0173074437        2.1954341366
 C        -7.6538544851       -3.2196659903        1.1792748722
 C        -7.1814763222       -1.7888948099        1.5191079916
 O        -7.0130979159       -0.9973422976        0.5944319563
 C        -6.7703357280       -1.3646563714        2.9265166588
 C        -6.5334192594        0.1211815705        3.1852300631
 C        -7.8035390579        0.9035971946        3.5196305334
 O        -8.7233641738        1.1472315785        2.6898974211
 C        -7.9444658778        1.3852948513        4.9417589015
 C        -6.9424188581        2.5621818795        5.1637927262
 O        -6.5464552428        3.2115610558        4.2013382322
 C        -6.3646328116        2.8727402867        6.4814108696
 C        -9.4641221373        1.8859730053        5.2424843490
 C        -7.5082315255        0.2103207127        5.9580555723
 C        -7.2604667234       -4.3125763499        2.2698215822
 C        -6.8862289218       -3.5584653295       -0.1975372616
 C       -12.8551055060       -0.2186661210       -1.5878990500
 C       -12.0992493244       -1.9672780809       -3.3963395540
 C        -7.7558106054        4.3179214432       -2.8652322571
 C        -7.0968479909        2.1750828762       -1.7131661431
 C        -9.1868113206        8.6481541960        0.1536097758
 C       -10.2828161494        6.9542359542        1.6880386265
 C       -10.8910372850       13.3023594002       -2.3362966913
 C       -10.0822930229       14.4866112363       -0.1130880492
 H       -12.3345501610       14.1225054381        1.3504227659
 H       -14.0361552734       14.4360310503        0.8966417001
 H       -12.8831581896       15.5147067530        0.5417430314
 H       -10.9639383197       10.4369085866       -1.5101362196
 H       -12.6470587629       10.9100437507       -1.4164499265
 H       -12.9102493904        9.7246898017        0.6952843146
 H       -11.5394546839        9.9160720966        1.4077830446
 H       -11.9196849107        5.5402995054       -1.1869759053
 H       -11.1044505947        4.7886101736        0.2541961440
 H       -10.1719812371        4.7286554265       -2.6864075599
 H       -11.3310443581        3.6623391556       -2.1072877751
 H        -8.0586454471        0.4258309134       -3.3688941758
 H        -8.4574773956        0.9956275409       -4.9874813858
 H        -9.7408981676       -0.9877976887       -4.4045546372
 H       -10.7779051803        0.4290175537       -4.6742550949
 H       -11.8340024816       -3.7030143887       -1.6608917577
 H       -12.1847576749       -3.4228340831        0.0483231561
 H        -9.3405745993       -4.1480548039       -0.8038222872
 H       -10.2612766164       -4.9285702982        0.4005533257
 H        -5.7944844427       -1.7403911723        3.1903209686
 H        -7.5015571750       -1.9007251779        3.5759935958
 H        -6.1329494709        0.5635778109        2.2260795724
 H        -5.7898924415        0.2094804458        3.9765377044
 H        -7.0838028292        3.2875041616        7.1320084904
 H        -5.4357438086        3.4320237042        6.4483568125
 H        -6.1204317357        1.9454668185        6.9479350562
 H        -9.8079837377        2.6550292768        4.5402491564
 H        -9.4631833507        2.2247189679        6.2877362876
 H       -10.0491173873        0.9871933389        5.0279970857
 H        -7.8162367037       -0.7914839305        5.7819024269
 H        -8.1805613011        0.4735198968        6.7874071421
 H        -6.4799355066        0.3105676957        6.2674938214
 H        -6.6959998468       -5.1035673461        1.7092880683
 H        -8.1226112035       -4.6938629294        2.7666473052
 H        -6.5146277975       -3.8607742526        3.0257376249
 H        -7.1608760026       -4.3717035391       -0.7714678391
 H        -5.7812998197       -3.4603533407       -0.0648098618
 H        -7.2484542877       -2.6917205750       -0.7776035093
 H       -13.7406302523       -0.9189034288       -1.4493821350
 H       -13.3421682006        0.3855143839       -2.3572593615
 H       -12.6061403957        0.4382639138       -0.8012878587
 H       -12.1081453894       -1.2634106814       -4.3097269103
 H       -13.1707532188       -2.1002942427       -3.5735482782
 H       -11.5839727260       -2.9921284988       -3.3685501965
 H        -7.0328322804        4.0103887191       -3.6977256698
 H        -7.1651474558        4.9421352887       -2.2157947763
 H        -8.5444195734        4.8621598134       -3.3265718902
 H        -6.6732541756        2.5551243283       -0.7245067658
 H        -6.1396917416        2.2240997028       -2.3786931002
 H        -7.4380406679        1.1338358709       -1.7709706032
 H        -9.3039756734        9.2733584942        1.0465926168
 H        -9.3690752061        9.2809639884       -0.7830530825
 H        -8.2855485487        8.1575958360        0.1651851397
 H        -9.6027505201        6.0914528262        1.7498824666
 H       -11.2668160564        6.5555727153        1.8731862469
 H        -9.8418703586        7.6702382467        2.3987115630
 H       -10.4819328987       12.3922539141       -2.7423128854
 H       -10.1262016358       14.1066866491       -2.6001377427
 H       -11.6683581025       13.5129050088       -3.0502020289
 H       -10.3332720160       14.2453937070        0.9761836801
 H       -10.3887299809       15.5591980366       -0.2858136884
 H        -9.0447356165       14.2836628284       -0.4768339098
 Na       -8.9420168409        0.5469548777        0.3288063012
