117

 C       -13.0267938101       14.4583874089        0.2801658185
 C       -12.5478529336       14.1562225411       -1.0975861134
 O       -13.3544600190       14.0597809722       -1.9746598770
 C       -11.0372083620       13.5609372735       -1.3811351807
 C       -10.9002189382       12.3155569200       -0.4066679984
 O       -10.2670555240       12.3328346653        0.6461788213
 C       -11.5238277183       10.9916501329       -0.9790299019
 C       -11.7535381759        9.9717112402        0.0864846638
 C       -11.4975237101        8.5154510065       -0.5342249819
 O       -12.2850655814        7.9968108977       -1.3336552348
 C       -10.3543911046        7.7709086372        0.2556964192
 C        -9.9855731153        6.3475906414       -0.4973727958
 O        -9.1713141177        6.3830044565       -1.3987920285
 C       -10.7150506567        5.0672207526       -0.2811813199
 C       -10.5299116889        4.1059120259       -1.4595051173
 C        -9.3598243772        3.2056232713       -1.1040099755
 O        -9.0505571102        2.9487970782        0.0728341079
 C        -8.3796558348        2.7684534244       -2.2841542385
 C        -9.1155087903        2.3397868548       -3.6901968276
 O        -9.7539595585        3.1960225767       -4.2445636943
 C        -9.0629633954        0.7551215164       -4.1355670220
 C       -10.3987273976        0.0095221776       -3.8765083360
 C       -10.7959704354        0.0200618497       -2.3538165125
 O       -10.1792577233        0.7547090188       -1.5928457255
 C       -11.7863056287       -0.8990659263       -1.6668854948
 C       -10.8061236498       -1.7481138231       -0.7020853186
 O       -10.1374414752       -1.1956898044        0.1552039236
 C       -11.2427470807       -3.1907941191       -0.5175721992
 C       -10.0339897334       -3.9847092709       -0.0113776588
 C        -9.4151041043       -3.4224115607        1.1907887739
 O        -9.9677659868       -3.2303991945        2.2780667356
 C        -7.7089161949       -3.3091348011        1.3579396616
 C        -7.4090756386       -1.8043197756        1.3632912902
 O        -7.5495433299       -1.1341249447        0.3392294853
 C        -6.5873439962       -1.2186549107        2.5190111162
 C        -6.4033477001        0.2586241828        2.7295934075
 C        -7.6704123188        0.7686814651        3.5056738738
 O        -8.7512266613        0.9941461259        2.8967911979
 C        -7.7194595090        1.0632826786        4.9811200751
 C        -6.8834608677        2.3873274229        5.1894264145
 O        -6.6605857062        3.0281547563        4.1992955406
 C        -6.8368204539        2.8399130713        6.5854526436
 C        -9.1720161654        1.5269578202        5.4021627230
 C        -7.2556558527       -0.1509542647        5.7607046277
 C        -7.2175073835       -4.1700915700        2.6043424989
 C        -6.8495304589       -3.7128066848        0.0259908019
 C       -12.8575478200       -0.1496361953       -0.7625258030
 C       -12.6678071287       -1.7605641858       -2.6716063492
 C        -7.3678293923        3.9432475416       -2.4736680638
 C        -7.3796144067        1.5434297415       -1.7733239380
 C        -9.0865200093        8.7369585092        0.1394995508
 C       -10.8894112570        7.6512604491        1.6452362407
 C       -11.0592972895       13.2545604505       -2.8518613703
 C       -10.1641700990       14.7984300745       -1.1252199961
 H       -13.1393834555       13.5479780663        0.8460777596
 H       -13.8144041415       15.0913696124        0.2297698330
 H       -12.2529424029       15.1549361311        0.5506538958
 H       -10.8001566456       10.6941350286       -1.7176399840
 H       -12.4965403273       11.2933622633       -1.6131108689
 H       -12.8425725195        9.9824308579        0.4301815155
 H       -11.1920728285       10.3291980656        0.9554447164
 H       -11.7658190387        5.2064806849       -0.0628976248
 H       -10.2320538496        4.6203233276        0.6278056591
 H       -10.1888182787        4.6470383439       -2.3014202532
 H       -11.1830218081        3.4331512270       -1.9666427369
 H        -8.3732097685        0.3159575949       -3.5533055788
 H        -8.8185184992        0.7214597401       -5.1276210707
 H       -10.3672821854       -1.0627818324       -4.2385621479
 H       -11.2692708725        0.2790407224       -4.4314630753
 H       -11.5141727055       -3.6501101666       -1.3997803813
 H       -12.0973434260       -2.9714089402        0.1118570578
 H        -9.1719795138       -4.0113688754       -0.6648413522
 H       -10.3168211436       -5.0488026846       -0.0152209725
 H        -5.6276259452       -1.6976044696        2.3033469059
 H        -6.8005953355       -1.7331174608        3.5048278997
 H        -6.3769907812        0.8321792491        1.8137970244
 H        -5.5244968414        0.4823993780        3.4486912964
 H        -7.8318000004        3.2092859132        6.8386519932
 H        -6.1139200235        3.6660018124        6.8107522608
 H        -6.6615276315        1.9758125189        7.2181713765
 H        -9.5166759607        2.4067510901        4.8502383747
 H        -9.2514496351        1.6794525483        6.4243430913
 H        -9.7473753781        0.7077129198        4.9706530066
 H        -7.9290355742       -0.9658710300        5.6793298373
 H        -7.0378606301        0.1024191112        6.7744328548
 H        -6.3389865350       -0.5268658107        5.3001967577
 H        -8.1599269273       -4.5524762244        3.0316603460
 H        -6.6112345443       -3.7905562738        3.3491705793
 H        -6.8621151481       -5.1066926006        2.1426960888
 H        -6.7919817534       -4.7348180861       -0.1607391421
 H        -5.7729429023       -3.4880327611        0.2489026055
 H        -7.1283538548       -3.1463614732       -0.8932003502
 H       -13.3085434488       -0.9028933817       -0.1402989883
 H       -13.7441746091        0.2492452931       -1.1921125409
 H       -12.3617709877        0.6379920548       -0.2720033127
 H       -13.4243587100       -1.0449752902       -3.1177867989
 H       -13.0519715956       -2.6331516257       -2.1504735074
 H       -11.9148220067       -2.3617575275       -3.3316739964
 H        -6.4458130396        3.5293911161       -3.0382081756
 H        -7.0326427597        4.1783459800       -1.4357921027
 H        -7.7674920960        4.7883547934       -3.0163126322
 H        -6.8473975795        1.9316632090       -0.8807509627
 H        -6.6752791160        1.3518417953       -2.7312476388
 H        -7.8413227487        0.5658163310       -1.5341870872
 H        -9.4681458350        9.6731823387        0.3608692799
 H        -8.7024280010        8.8120935747       -0.8533658714
 H        -8.3204082697        8.3163319901        0.7867668915
 H       -10.1389813716        7.4654490024        2.3875772072
 H       -11.6048569406        6.7720815518        1.7186477646
 H       -11.4401223118        8.5157420907        1.8357373239
 H       -11.9635135782       13.3471868100       -3.4496442805
 H       -10.7308578733       12.2262213523       -3.0547563110
 H       -10.3655829134       13.8353986049       -3.4254309031
 H       -10.5692816576       15.4214812614       -0.3003905694
 H       -10.1256050342       15.4540730794       -2.0678664209
 H        -9.1887845048       14.4327833077       -0.8072355077
 Na       -9.0494913516        0.6889411522        0.6327086380
