117

 C       -12.7984328329       14.4704672310        0.1123254067
 C       -12.5789774368       14.0872462072       -1.3605524055
 O       -13.5581370089       14.0507282319       -2.1046564439
 C       -11.1354970526       13.6824915298       -1.7309687962
 C       -10.7635523923       12.4865789648       -0.8598736522
 O       -10.0426199385       12.5445966354        0.0939250619
 C       -11.4675718422       11.1494709476       -1.2916318749
 C       -11.7729815470       10.1032394442       -0.1342181475
 C       -11.4839194171        8.6414344041       -0.5678398697
 O       -12.0198778324        8.1365186383       -1.5126903046
 C       -10.3565842719        7.8161894023        0.3045766695
 C        -9.9694155476        6.5473781002       -0.5177125134
 O        -8.9419061509        6.4739280090       -1.1718373165
 C       -10.7568156295        5.3120185000       -0.3575762927
 C       -10.3828035125        4.2966343921       -1.3680023508
 C        -9.0303313866        3.2885300155       -1.0300398534
 O        -8.8395743516        2.7915178240        0.0786732517
 C        -8.2283752482        2.6768355286       -2.2671180075
 C        -9.2350776621        2.2284009011       -3.4832107142
 O        -9.7125140417        3.1775089275       -4.0590158051
 C        -9.4661805696        0.7613378123       -4.0900994129
 C       -10.7475638021        0.1346662360       -3.5527159462
 C       -10.9755547879        0.2080539081       -2.0609177285
 O       -10.4859433122        1.1595091830       -1.4514019486
 C       -11.9658083229       -0.7764481055       -1.4441380630
 C       -11.0099232204       -1.8609920096       -0.6541525109
 O       -10.2208316827       -1.2605010062       -0.0197849318
 C       -11.2392317401       -3.4912615518       -0.4236885443
 C        -9.8448011201       -4.0388739180       -0.0839745351
 C        -9.0357011872       -3.4986682385        1.3090639449
 O        -9.7843877219       -3.2539618314        2.2647097527
 C        -7.4369061221       -3.5465839747        1.3442279490
 C        -7.1577358795       -1.9399120426        1.4130664473
 O        -7.7051792961       -1.2175370976        0.5777631221
 C        -6.4340920183       -1.2892948971        2.5257640699
 C        -6.7140838404        0.2376948131        2.5529457463
 C        -7.9725571932        0.6940572719        3.4174526903
 O        -9.0785999822        0.8387385093        2.9417717634
 C        -7.7382945083        1.0457127544        4.9566205083
 C        -6.9497929816        2.3747951956        5.2496758549
 O        -6.3184396483        2.9192463295        4.3453012085
 C        -6.8667552468        2.9810876881        6.7000811163
 C        -9.2105623849        1.0436225425        5.6070602966
 C        -6.9623192213       -0.0647722741        5.6754149170
 C        -7.1130980443       -4.2686689205        2.7552803862
 C        -6.8934062434       -4.3309200862        0.1202746868
 C       -12.8631165065       -0.0989953725       -0.3150712833
 C       -12.8376175540       -1.5915195985       -2.5334166372
 C        -7.5061124833        3.8969121049       -2.9543846488
 C        -7.3228848244        1.5636111227       -1.7339625283
 C        -9.0423152189        8.5588466121        0.3957699843
 C       -11.0160400539        7.5254751578        1.7438415399
 C       -10.8389852934       13.3436306558       -3.2135412471
 C       -10.1663704997       14.8675688449       -1.3799618187
 H       -13.5631801809       13.7260003212        0.1791708189
 H       -13.3814325570       15.4697536358        0.1433836203
 H       -11.9367522065       14.5215870375        0.7638861490
 H       -10.6492532603       10.6833252000       -1.9691477769
 H       -12.2657742576       11.2589868809       -1.9319629817
 H       -12.7634069862       10.2408994225        0.2712960345
 H       -10.9873566354       10.3372873258        0.7019721542
 H       -11.8585100733        5.4678457337       -0.4782606595
 H       -10.5721079285        4.8892768066        0.6623247102
 H       -10.5187076838        4.5167553189       -2.4897503172
 H       -11.1423849470        3.4751469407       -1.2456336194
 H        -8.4578307651        0.1590239752       -3.8990621725
 H        -9.5909642502        0.9478114890       -5.2473482656
 H       -10.9690411448       -0.8477393402       -3.9377462826
 H       -11.7025166453        0.6041193040       -3.9758925660
 H       -11.4955077152       -4.0410062432       -1.4147257649
 H       -12.0729741232       -3.4752954294        0.2865255775
 H        -9.1580519250       -3.9250835659       -0.9494972823
 H        -9.9353542577       -5.1231914331       -0.1360281677
 H        -5.3807808320       -1.6121763908        2.5035733871
 H        -6.7693231501       -1.7535120408        3.4133102336
 H        -6.9004046840        0.6346665249        1.5358921220
 H        -5.9909473310        0.7802835910        2.9992405125
 H        -7.8342676572        3.3999711615        6.9254158620
 H        -6.2047126128        3.7888787388        6.7938521354
 H        -6.6387027562        2.2560452414        7.4713006991
 H        -9.6926652342        2.0221749768        5.5112853009
 H        -9.0170668741        0.8363470552        6.7511169097
 H        -9.8179347823        0.2580293373        5.1406384415
 H        -7.1955758712       -1.0071522216        5.1164114816
 H        -7.1285485097        0.0072210108        6.7857156681
 H        -5.8709410485       -0.0891960386        5.5937154332
 H        -7.1316307139       -3.5758894235        3.6324023129
 H        -6.0360141491       -4.6565109537        2.6660654022
 H        -7.8255307635       -5.0980543193        2.9825520753
 H        -7.6465464279       -5.1738704748        0.0470591553
 H        -5.9696605193       -4.8620352837        0.1177819005
 H        -6.9402429072       -3.7492473290       -0.7999605378
 H       -13.2584121601       -0.7551784267        0.5499795246
 H       -13.6969495375        0.3826157723       -0.8814272305
 H       -12.2930593187        0.8074311455        0.0106317385
 H       -12.7431867856       -0.9047247567       -3.3769459048
 H       -13.8973421268       -1.7836675731       -2.2578663693
 H       -12.4375449233       -2.5928482399       -2.7284140658
 H        -6.9529091020        3.5906384508       -3.8107438761
 H        -6.9788732019        4.5027713845       -2.2502226330
 H        -8.3744990651        4.4463730265       -3.3324694639
 H        -6.6567915114        1.9822349053       -0.9502826439
 H        -6.8647590168        1.0597496427       -2.5080963450
 H        -7.9615541760        0.8708141254       -1.1834040176
 H        -9.1824578069        9.1745415145        1.3109339570
 H        -8.9585652402        9.3525267054       -0.4615250611
 H        -8.2058885269        7.8806540523        0.3255519592
 H       -10.2615330003        6.9796443422        2.3554475380
 H       -11.9077794606        6.9973348161        1.8088720411
 H       -11.1622524599        8.5827569606        2.1920857634
 H       -11.1119204729       14.2148392125       -3.8388451103
 H       -11.4370169852       12.5142987769       -3.6391245780
 H        -9.7785293227       13.1458242762       -3.5368607729
 H        -9.9175958443       14.7157534883       -0.2662724261
 H       -10.6909010380       15.7831466074       -1.5010605850
 H        -9.1575464554       14.7622828998       -1.8534573948
 Na       -9.3437807967        0.7959166619        0.7808166704
