117

 C       -12.8113874678       14.5352627572       -0.1282974797
 C       -12.4918670273       13.9681802046       -1.7263100667
 O       -13.4821890391       13.8758172182       -2.4462520961
 C       -11.0619612371       13.8233446499       -2.1741343824
 C       -10.5767764382       12.5082421246       -1.5231171481
 O        -9.8416672721       12.5630162641       -0.5258014554
 C       -11.3324826299       11.2032054276       -1.8186451581
 C       -11.2786512120       10.2414065202       -0.5437324268
 C       -11.1034576329        8.7639610963       -0.6288694276
 O       -11.6019756654        8.0916063702       -1.4785214138
 C       -10.2538849720        7.9088453237        0.3834466303
 C        -9.6647628436        6.7415420481       -0.4926280141
 O        -8.5727963906        6.6830693492       -1.0476323628
 C       -10.5645748747        5.4864223583       -0.3408075395
 C       -10.1847857388        4.5403689918       -1.5312723397
 C        -9.0802444933        3.4880226733       -1.2682439425
 O        -8.7770360769        3.1712787643       -0.1290290068
 C        -8.1803758107        2.8603888419       -2.4889256452
 C        -9.3625339846        2.1602533286       -3.3743032166
 O       -10.1794869358        2.9179576982       -3.8555070118
 C        -9.7133961392        0.6320155914       -3.4591304239
 C       -11.2006597800        0.2118706346       -3.3069822368
 C       -11.4842847220        0.2369846012       -1.7501153992
 O       -11.0232981116        1.1736368320       -1.1611985178
 C       -12.2573442303       -0.9728676085       -0.9888132422
 C       -11.1426384073       -1.7348678770       -0.3905562454
 O       -10.3507464290       -1.1508891358        0.3204445982
 C       -10.9999835743       -3.2331619162       -0.3837271241
 C        -9.6547174877       -3.8801027500       -0.1880354328
 C        -9.0476883769       -3.6989584836        1.3330158884
 O        -9.9146643061       -3.5659330441        2.2034739924
 C        -7.6037873523       -3.6177434230        1.5317525617
 C        -7.2382156006       -2.0555625982        1.2823941348
 O        -7.3653773608       -1.5123398547        0.2093099344
 C        -6.6531288665       -1.3825859922        2.5527026781
 C        -6.8804081084        0.1683121721        2.5466541775
 C        -8.0287590180        0.5714042029        3.5596786791
 O        -9.1336117030        0.7342454186        3.1638958766
 C        -7.6992482946        0.6904322354        5.1078031675
 C        -7.0032030373        2.1233645325        5.2493611326
 O        -6.2046330736        2.5330959164        4.3879297161
 C        -7.2516467680        3.0190720628        6.4489184103
 C        -8.9176475256        0.6860891487        6.0390982201
 C        -6.6031926472       -0.3051102915        5.7218932755
 C        -7.2908384168       -4.2955162110        2.8761982855
 C        -6.5970937517       -4.1231462760        0.3378400278
 C       -13.0140799698       -0.2322660653        0.2131103222
 C       -13.1192677390       -1.8828282869       -1.9244141682
 C        -7.4301227685        4.1760858807       -2.9878953782
 C        -7.2440132029        1.7684107991       -2.0060726244
 C        -9.0432245510        8.7729963816        1.0030610394
 C       -11.0759722683        7.3666925728        1.6522364874
 C       -11.0867256002       13.7871967063       -3.7708198729
 C       -10.1306691429       14.9299505118       -1.6218359559
 H       -13.8141787425       14.7077269159       -0.0718276004
 H       -12.3395939381       15.5152015553       -0.0579092383
 H       -12.3861495042       13.9143733279        0.5481720544
 H       -10.9795568399       10.5008774310       -2.6552251390
 H       -12.3501135762       11.4216589760       -1.9943078417
 H       -12.1627861842       10.3667914639        0.1675321702
 H       -10.2850361179       10.4906579252       -0.1110203524
 H       -11.6387474411        5.7625908998       -0.6954678153
 H       -10.6487357403        4.9250987303        0.5784256793
 H        -9.9677879691        5.0220624685       -2.4745886402
 H       -11.1749594740        4.0830794885       -1.7781347283
 H        -9.0190982058        0.1551377698       -2.7837196454
 H        -9.3841569820        0.2967374029       -4.4001862714
 H       -11.4422254435       -0.7558960011       -3.6990389598
 H       -11.9892581874        0.8294240977       -3.8318376096
 H       -11.4981278231       -3.5860373594       -1.2470294115
 H       -11.5105028892       -3.5021991309        0.5387133672
 H        -8.9458402918       -3.7809439154       -1.0003738466
 H        -9.7999474029       -4.9724067239       -0.1902767557
 H        -5.5795232226       -1.5473762486        2.9179738163
 H        -7.2424284537       -1.8406051893        3.3195264080
 H        -7.2443947775        0.4899577272        1.5528544509
 H        -5.9446229726        0.7004946992        2.7370125284
 H        -8.2490979611        3.5196374730        6.3019618397
 H        -6.6026223597        3.8766627216        6.3259065028
 H        -7.1501499799        2.6972676932        7.5038723695
 H        -9.7317947553        1.0743043636        5.4817939542
 H        -8.8291027809        1.2460266530        6.9981937370
 H        -9.0845074815       -0.3198854044        6.3620868018
 H        -6.9763999001       -1.2568744691        6.0875974646
 H        -6.1384438809        0.1858193864        6.5293256544
 H        -5.8049850869       -0.6628938343        5.1433940298
 H        -6.2286507939       -4.2981142481        3.0044063612
 H        -7.6527787730       -5.3604630797        2.9633080487
 H        -7.7404964015       -3.8293330784        3.6881643111
 H        -6.3061774067       -5.2330513706        0.2617396490
 H        -5.6558011187       -3.7173941693        0.5599042160
 H        -6.7612843515       -3.6744261934       -0.6006071437
 H       -13.7841031234       -0.9293134434        0.3706537579
 H       -13.2852874627        0.7714904566        0.1111699939
 H       -12.5370368199       -0.3953629740        1.1656660689
 H       -14.2274613649       -1.5346353512       -1.9506153785
 H       -12.9791589988       -2.8941081186       -1.3757508686
 H       -12.7190534627       -1.6941192291       -2.9637683622
 H        -7.1031493230        3.9831528533       -3.9780017109
 H        -6.6642524972        4.4002209189       -2.1964360497
 H        -8.1673788207        5.0648809954       -2.9583858545
 H        -6.2901262121        2.2023097758       -1.4826800475
 H        -7.0282654497        1.2847239973       -2.9299881165
 H        -7.7672481765        1.2075250355       -1.1237105688
 H        -9.4905705722        9.5867346059        1.5512619600
 H        -8.4488163092        9.1260972367        0.1357861964
 H        -8.3687175819        8.2168478762        1.5933469030
 H       -10.3383254696        6.7889483204        2.2191531225
 H       -11.9093302193        6.7509564295        1.3864025872
 H       -11.3985136710        8.1246104453        2.3701365525
 H       -10.1310438840       13.8788034055       -4.2867137771
 H       -11.6820421253       14.5466899826       -4.1360517107
 H       -11.6056494384       12.8660604374       -4.1347386690
 H        -9.4249270660       14.5465928803       -0.8524717243
 H       -10.5636660480       15.8812880562       -1.3345498465
 H        -9.4374535584       15.0773603147       -2.5130171802
 Na       -9.5443376603        0.8595945243        0.7157522489
