117

 C       -12.8068087315       14.5370626143       -0.2587224547
 C       -12.6195905171       14.1386734721       -1.7742921660
 O       -13.5209533745       13.7498779584       -2.4563050220
 C       -11.0169259566       13.8796215420       -2.3046127007
 C       -10.6103265769       12.5370432033       -1.5714016553
 O        -9.6945454893       12.5281334371       -0.8314610065
 C       -11.2506453238       11.1325453471       -1.9044421100
 C       -10.9756444536       10.2630996389       -0.6979394331
 C       -10.9846225614        8.6666948861       -0.8068737773
 O       -11.6335261307        8.0281808807       -1.6082435370
 C       -10.1428166071        7.9167161487        0.4365831819
 C        -9.5358356971        6.7407085508       -0.2484013055
 O        -8.5010225316        6.9490641145       -0.9096073487
 C       -10.3604551634        5.4085575856       -0.4101350931
 C       -10.0650966222        4.6489719258       -1.6216968168
 C        -9.0890416425        3.5655497430       -1.2565347771
 O        -8.9609084242        3.1556949026       -0.0847177473
 C        -8.3404551721        2.8866903093       -2.4425939705
 C        -9.4677500251        2.1635907907       -3.2765939643
 O       -10.2426927172        2.8444550395       -3.8862140920
 C        -9.7163064351        0.5143298762       -3.3852215857
 C       -11.2430633467        0.2108237134       -3.1024013500
 C       -11.6675600270        0.3285417240       -1.6342017697
 O       -11.1432649588        1.2013928191       -0.9534238617
 C       -12.3621163169       -0.9643178670       -0.8982422102
 C       -11.0724772279       -1.6740166361       -0.2490302941
 O       -10.2620670537       -1.1452273452        0.4693454851
 C       -11.0062838984       -3.3173058494       -0.4232234430
 C        -9.6875159521       -3.8551866346       -0.2596311128
 C        -9.1145505224       -3.6958093704        1.1945336166
 O        -9.8102552704       -3.8062299168        2.1826585193
 C        -7.5435857424       -3.5080239297        1.4525631367
 C        -7.2844994873       -2.1145311629        1.3880588896
 O        -7.3319739815       -1.4750192265        0.3063438607
 C        -6.7932535438       -1.3924002380        2.6198108763
 C        -6.9343876918        0.1463556580        2.6218405424
 C        -7.9434903547        0.4694144526        3.6329381795
 O        -9.0872709150        0.7695845989        3.2629619162
 C        -7.6380389110        0.6042159362        5.1826054987
 C        -6.9822904549        2.1683147144        5.1903347797
 O        -6.1585443993        2.3881741054        4.3038304566
 C        -7.3841066779        3.1333817455        6.2678184147
 C        -8.8972397677        0.4339712815        6.0297868720
 C        -6.6234132926       -0.4268228892        5.6421898109
 C        -7.3763699693       -4.1123396662        2.8161001185
 C        -6.5754013080       -4.2406500033        0.4206389826
 C       -13.1516599105       -0.4182258744        0.3695992893
 C       -13.2375283105       -1.8866284062       -1.7551654738
 C        -7.6702331490        4.1328564348       -3.2919426152
 C        -7.2656046506        1.8957246251       -1.8918526167
 C        -8.9274198182        8.6891798535        1.1582696065
 C       -11.1171623562        7.6383613155        1.5308033919
 C       -11.0462711978       13.6741826421       -3.7624223758
 C       -10.1090701704       15.1010226343       -1.9188599754
 H       -13.8037468283       14.8197584509       -0.0730218709
 H       -12.1779185338       15.3474695006       -0.0267448125
 H       -12.5248395540       13.5906743228        0.1825249556
 H       -10.8468226240       10.5559362249       -2.7993235907
 H       -12.2870811953       11.1133770041       -1.9639473680
 H       -11.8284096095       10.3749555745       -0.0226853183
 H        -9.9046633804       10.6173482328       -0.2744558886
 H       -11.4624017355        5.6127809101       -0.4934530565
 H       -10.2493672787        4.6472000409        0.4869180713
 H        -9.5941316714        5.2369857683       -2.5618884723
 H       -11.0196612486        4.3370804526       -2.0553943266
 H        -8.8545971295       -0.0258666801       -2.8386939132
 H        -9.5136533208        0.2068967890       -4.5270328431
 H       -11.6270604070       -0.7803666576       -3.3612775282
 H       -11.9653958039        0.8399345635       -3.7125768931
 H       -11.2357138966       -3.3194511232       -1.5444379838
 H       -11.7169445269       -3.8314187079        0.2019320969
 H        -9.0527313788       -3.1124493207       -0.8092437859
 H        -9.3657142981       -4.7929531373       -0.7079398730
 H        -5.6996017872       -1.5006226805        2.7541199494
 H        -7.1968823342       -1.8058603739        3.5175301951
 H        -7.2731391585        0.5310470869        1.6450061331
 H        -6.0551948381        0.5983283012        2.8016212804
 H        -8.3826120537        3.4840488928        6.0449108824
 H        -6.7738122925        4.0137660757        6.4390567448
 H        -7.4444385407        2.6220889967        7.2369224760
 H        -9.6810268636        0.9833224361        5.5203058794
 H        -8.8689507009        0.7210821531        7.1276270137
 H        -9.1483038007       -0.6204192471        6.0815353588
 H        -7.1190315310       -1.4228394019        5.7539471360
 H        -6.1520063101       -0.2929584483        6.6485021003
 H        -5.7877812635       -0.6797822303        5.0328150574
 H        -6.3578539849       -4.5440661239        2.9199274415
 H        -8.1189668328       -4.8015589379        3.1768187764
 H        -7.4532298755       -3.3572074678        3.7092087925
 H        -6.7982281431       -5.2745438227        0.5761402002
 H        -5.5240555769       -4.1836387740        0.5849629666
 H        -6.6380512536       -3.9464556828       -0.6319437273
 H       -13.9020307691       -1.2261187150        0.5476748458
 H       -13.4739888566        0.5948967255        0.4041543721
 H       -12.6692457756       -0.6526517338        1.2637805984
 H       -14.3257783348       -1.4950001468       -1.6834713992
 H       -13.1762283518       -2.7839581766       -1.1683752857
 H       -12.9582469918       -1.7912940601       -2.8770202235
 H        -7.0819340996        3.6210402740       -4.1048525142
 H        -7.1107479603        4.6416238144       -2.5192844907
 H        -8.3885273628        4.8378315983       -3.6946353727
 H        -6.3372677143        2.5100164948       -1.6722527448
 H        -7.0400502664        1.2250246827       -2.7763132187
 H        -7.5533013156        1.5237839372       -0.8922463445
 H        -9.3964737977        9.6391662016        1.4686373859
 H        -8.0823158830        8.8283607173        0.3899063046
 H        -8.5453068743        8.2388663342        2.0166704023
 H       -10.6009763188        7.1205902769        2.3479574567
 H       -11.8074908314        7.0364411825        1.0698161260
 H       -11.6759407721        8.4591507410        2.0791036022
 H       -10.1430550892       13.1484007398       -4.0302625244
 H       -10.8087463149       14.6634893892       -4.2499389134
 H       -11.9120541186       13.2429432635       -4.2951533174
 H        -9.6355802812       14.9705913387       -0.8449817039
 H       -10.6125897366       16.0852192335       -2.0724543213
 H        -9.2308533284       15.0815121103       -2.5969208060
 Na       -9.4536463006        1.0892907000        0.8304257637
