117

 C       -12.7420196050       14.5598540815       -0.4345188072
 C       -12.5940355881       14.0789707173       -1.7605222242
 O       -13.5216172292       13.7080054996       -2.4954463201
 C       -11.0804111511       13.8949969378       -2.4264877416
 C       -10.5484404755       12.5287633358       -1.6198802716
 O        -9.4714707906       12.6205647476       -1.0602036329
 C       -11.1774685251       11.1689112613       -1.9509710064
 C       -10.7243135159       10.2763908051       -0.7798020750
 C       -10.8461296956        8.6767026204       -0.7895956186
 O       -11.5184911814        8.0570621412       -1.5912240084
 C       -10.1499640618        8.0039661665        0.4844535901
 C        -9.4317211427        6.8404841528       -0.1972611000
 O        -8.3811634739        6.9048463342       -0.8241554669
 C       -10.3195464992        5.6002288120       -0.3512478128
 C        -9.9545884034        4.7377307554       -1.5600958182
 C        -9.0943930609        3.5469188304       -1.2856199540
 O        -9.1462662799        3.0953918547       -0.1487993436
 C        -8.4044455016        2.8069409984       -2.4561680179
 C        -9.6383273798        2.1511591455       -3.2644435141
 O       -10.3784321524        2.7714387034       -3.9756115540
 C        -9.7859106267        0.6473515652       -3.1650566801
 C       -11.1744290290        0.2354813150       -2.9854019637
 C       -11.5406621541        0.2150932598       -1.4042765100
 O       -11.3770904858        1.2315521393       -0.7474356775
 C       -12.3644681701       -1.0158035933       -0.6767837826
 C       -11.1506895448       -1.7576062534       -0.1249108932
 O       -10.2191128947       -1.2581281022        0.4925815058
 C       -10.9756125997       -3.2123037567       -0.5692776038
 C        -9.5413262177       -3.6603606457       -0.3453298417
 C        -9.0925102978       -3.8193508052        1.1229734467
 O        -9.8860891930       -3.9890352887        1.9984555917
 C        -7.5213125040       -3.7129604017        1.5148519320
 C        -7.2398281494       -1.9639662221        1.3267882275
 O        -7.3832020597       -1.3012395815        0.3482367068
 C        -6.7179676268       -1.3303706845        2.6961840345
 C        -6.8262310598        0.2334456393        2.7408330747
 C        -8.0069162640        0.5537101392        3.6162126093
 O        -9.1963640882        0.8666240956        3.3052286415
 C        -7.6286500338        0.5606105098        5.1613101615
 C        -6.9326094140        2.0096201742        5.1933158379
 O        -6.1552964180        2.3036912965        4.3676514520
 C        -7.5139876881        3.0935303680        6.0475735670
 C        -8.8975591908        0.3513738821        5.9728436994
 C        -6.5376373960       -0.4239649740        5.5832884297
 C        -7.2474978794       -4.3141053878        2.9293454993
 C        -6.7279103658       -4.4614881035        0.5052912915
 C       -13.2670552294       -0.5124927466        0.4943092559
 C       -13.3271108315       -1.6731152464       -1.6325306768
 C        -7.8830314433        3.6891874112       -3.5647566513
 C        -7.2065476799        2.0034214186       -1.8771754936
 C        -8.9261472374        8.7818789915        1.1353119705
 C       -11.3260544857        7.8185843222        1.4933066588
 C       -11.0788701520       13.5857277369       -3.9082641787
 C       -10.2258541836       15.0780727325       -2.0746946721
 H       -13.7831699406       15.0587264176       -0.3523906257
 H       -12.0222044340       15.3462888704       -0.2655747460
 H       -12.7072360706       13.5577573130        0.1311999810
 H       -10.6244661272       10.8052022780       -2.7578189246
 H       -12.3105193114       11.1295778747       -2.1821816497
 H       -11.2624000948       10.5073643993        0.1313599361
 H        -9.6568308949       10.5420233082       -0.7676343573
 H       -11.3785480028        5.7586004082       -0.2590749645
 H        -9.9519762951        5.0824680132        0.6331067174
 H        -9.3818436839        5.3468457851       -2.2654350423
 H       -10.8386596835        4.5108720976       -2.2042725571
 H        -9.0074658827        0.2666196520       -2.4057695226
 H        -9.3699005919        0.2106512543       -4.1631198745
 H       -11.4831147736       -0.7570493791       -3.4093323770
 H       -11.9466484993        0.8698320975       -3.3557302626
 H       -11.3568537639       -3.2381170309       -1.6289535758
 H       -11.4995918736       -3.8676550954        0.1907299524
 H        -8.7474453988       -3.1304374911       -0.9080917352
 H        -9.3943029732       -4.6937836563       -0.6999665519
 H        -5.7209205858       -1.5938179072        2.8858873128
 H        -7.2983674327       -1.7865890556        3.5277304565
 H        -6.9735005127        0.5587806278        1.7422239436
 H        -5.9045534211        0.8028598350        3.0573485214
 H        -8.4941169367        3.3928654634        5.7837945968
 H        -6.8631112885        3.9680887466        6.1192029165
 H        -7.5659332739        2.7527475456        7.0514545385
 H        -9.6705922634        1.1604209161        5.7879169315
 H        -8.7176989496        0.2546635458        7.0237686310
 H        -9.3311427396       -0.6679443908        5.7334158751
 H        -6.7590982491       -1.4890703969        5.3334788377
 H        -6.3023198594       -0.5922682771        6.6793058498
 H        -5.5214570554       -0.2711601590        5.0929137165
 H        -6.1466976181       -4.5189643393        3.1697967776
 H        -7.8693926132       -5.1499373046        3.2304228992
 H        -7.6087886469       -3.6007006874        3.7089911800
 H        -7.0749094412       -5.4353838489        0.4480796957
 H        -5.6211282834       -4.5764890535        0.6392567006
 H        -6.7725256502       -3.9853844903       -0.4926233201
 H       -13.9078154005       -1.3233784578        0.8301165334
 H       -13.7178009905        0.4782508402        0.1966842127
 H       -12.7679724858       -0.3664843376        1.4585698007
 H       -14.0518216556       -0.9818547229       -1.9105292436
 H       -13.8176047684       -2.3281619088       -0.9612785456
 H       -12.8718129246       -1.9396852588       -2.5409330977
 H        -7.0221784426        3.1165674960       -3.9694104460
 H        -7.6906084992        4.6402863021       -3.1430338855
 H        -8.6046317956        3.8040178828       -4.3019001700
 H        -6.4812907681        2.7370859128       -1.6712945959
 H        -6.7675047779        1.3745983268       -2.6890344890
 H        -7.5025848153        1.5834729068       -0.9554776147
 H        -9.1721711926        9.8132608628        1.5011340721
 H        -8.1168923730        8.6961180321        0.4629300658
 H        -8.6586264005        8.1824422486        2.1036832498
 H       -11.1291910236        7.3864492909        2.4672359172
 H       -12.1302047242        7.3211674516        0.8522717671
 H       -11.7424851700        8.7645718419        1.7823607739
 H       -10.4882120101       12.6540066753       -3.9872089352
 H       -10.3494770883       14.2388115600       -4.5113444227
 H       -11.9901500308       13.4987861712       -4.4943876879
 H       -10.1990373988       15.3388763599       -1.0319682828
 H       -10.5400583930       15.9505143696       -2.7550845507
 H        -9.1877954205       14.8558432053       -2.3594860087
 Na       -9.3982192220        1.2666729423        0.9940010153
