117

 C       -12.7011524505       14.6213365695       -0.4336254744
 C       -12.6231462311       13.9460645783       -1.9145862147
 O       -13.5331251959       13.6569496762       -2.6156383747
 C       -11.0418378262       13.7584816751       -2.5203374320
 C       -10.3310453820       12.5341161628       -1.9240764136
 O        -9.3333788951       12.7891373667       -1.2016952998
 C       -11.0263754717       11.2316833285       -1.9455837505
 C       -10.4329191134       10.3787589579       -0.8114252859
 C       -10.7416578684        8.9065412438       -0.7614863194
 O       -11.3201385712        8.1747829855       -1.5119629083
 C       -10.1378928439        8.1559450607        0.3981749559
 C        -9.4628627330        6.8292308733       -0.1846577921
 O        -8.3485941626        6.8822162151       -0.6079798637
 C       -10.3598416552        5.5867622982       -0.2918720518
 C        -9.8723291282        4.9082837397       -1.5939370531
 C        -9.2363927597        3.5543554126       -1.3399558445
 O        -9.1998350954        3.0290474445       -0.2417182622
 C        -8.4756253933        2.8555912464       -2.5940980275
 C        -9.6680590238        1.9955247726       -3.1968956946
 O       -10.4565797955        2.6721976250       -3.8531664845
 C        -9.8636233247        0.4904304066       -2.8629068035
 C       -11.2724392632        0.0883103483       -2.6485949657
 C       -11.8010591107        0.3077231014       -1.1586454510
 O       -11.4058894123        1.2802303483       -0.5601859152
 C       -12.4220565843       -0.8986562096       -0.5536000858
 C       -11.0727688635       -1.8452850975       -0.0941507218
 O       -10.2805575613       -1.1995987052        0.5620928223
 C       -10.8765832488       -3.3257925207       -0.6013904743
 C        -9.3072171377       -3.6516491524       -0.3942092861
 C        -9.0714192961       -3.8274187898        1.1077159435
 O        -9.9932568628       -4.1632877327        1.8263556523
 C        -7.5547225289       -3.5787450902        1.4860689878
 C        -7.1561963764       -2.0647287112        1.4498743196
 O        -7.4677424192       -1.4611887530        0.4771932413
 C        -6.6813881585       -1.3602124057        2.6269325334
 C        -6.9012044899        0.1490237970        2.6532568076
 C        -7.9959078189        0.5312504404        3.6320554923
 O        -9.0730413776        0.9374049582        3.2417851683
 C        -7.6419718134        0.5299735814        5.0876425014
 C        -7.0169047629        2.0132040364        5.1550060952
 O        -5.9990018260        2.2013113787        4.5277915439
 C        -7.7437935181        3.1099027575        6.0208468216
 C        -8.8946907247        0.3812811076        6.0003679319
 C        -6.4797488740       -0.3645483393        5.5595661933
 C        -7.2183352776       -4.2925097375        2.8352588171
 C        -6.8079129895       -4.5531884990        0.4597990758
 C       -13.1967007263       -0.4192707330        0.6951401166
 C       -13.3244247019       -1.5972510238       -1.6586233409
 C        -7.8200749172        3.6538985286       -3.8670382168
 C        -7.3562373145        1.9623262890       -1.9521699323
 C        -9.0288360276        9.0131862320        1.1868676705
 C       -11.3177142745        7.8973759324        1.3694180390
 C       -11.1957996313       13.4583438067       -4.0530873950
 C       -10.2946922635       15.0580395644       -2.1906264591
 H       -13.7200170891       15.0877570141       -0.5558653484
 H       -12.0247981930       15.5621400661       -0.2523294890
 H       -12.8044694062       13.7384097018        0.2726583550
 H       -11.0499289676       10.7142005343       -2.8933638894
 H       -12.0735931463       11.5153026841       -1.6356409147
 H       -10.8002215997       10.7020518055        0.1533269310
 H        -9.4362668772       10.4187136006       -0.8925613004
 H       -11.4335315117        5.9284052978       -0.3770224112
 H       -10.2688747680        5.0490381795        0.6039527772
 H        -9.3184036073        5.5428050997       -2.1446353073
 H       -10.7018627836        4.6537781322       -2.2748537482
 H        -9.1525181219        0.2671635561       -2.1187162295
 H        -9.5341192602       -0.0236266752       -3.6794426582
 H       -11.4752205785       -0.9403465837       -2.9119844331
 H       -11.9813005084        0.6312233723       -3.2205120480
 H       -11.2154649090       -3.2973682421       -1.6244515066
 H       -11.4576456854       -3.9956343192        0.0982507776
 H        -8.6103416070       -2.9421890369       -0.8033990158
 H        -8.9967858178       -4.6060563060       -0.8692966772
 H        -5.6381446779       -1.5859839405        2.8379636394
 H        -7.2555614522       -1.7817949699        3.4626853331
 H        -7.1348065827        0.5402727728        1.6538485304
 H        -5.9000112323        0.7125184467        2.9062614614
 H        -8.7595309605        3.4064766636        5.7360061032
 H        -7.1419861559        3.9942891577        6.0462629967
 H        -7.7834208191        2.8864923644        7.0749046003
 H        -9.5365439346        1.2702675181        6.1391768074
 H        -8.5185616074        0.0761398775        6.9711418815
 H        -9.5213233994       -0.4987339257        5.7315023662
 H        -6.4918027607       -1.4662826808        5.3995229675
 H        -6.3848965194       -0.4590956980        6.6425057680
 H        -5.4649512141       -0.0355376755        5.1811069115
 H        -6.2155806282       -4.1717297734        3.2066190430
 H        -7.4035497872       -5.3805002738        2.6143768717
 H        -7.8796953893       -4.2204003984        3.6107896490
 H        -7.2506107369       -5.5924592123        0.3425146825
 H        -5.7829172198       -4.6942222775        0.8019459027
 H        -6.6258980012       -4.1399939145       -0.5121216635
 H       -13.5281150904       -1.1194402359        1.4131913920
 H       -13.9088543779        0.2798160746        0.1882028751
 H       -12.6195306387        0.2967676311        1.3820374023
 H       -13.7052170384       -0.9835822866       -2.3965935009
 H       -14.1885499139       -1.9577320716       -1.1832842979
 H       -12.7156121309       -2.2054966018       -2.1633761785
 H        -7.0052718810        3.0923694404       -4.0771502687
 H        -7.6692511481        4.6914785141       -3.6274146345
 H        -8.5449671801        3.5496262651       -4.6725974197
 H        -6.6052423684        2.6046325485       -1.5402555932
 H        -6.8872111348        1.4822981007       -2.6954602202
 H        -7.8649633932        1.3475945927       -1.2315540827
 H        -9.4017774544        9.9347960782        1.6300527116
 H        -8.1423414887        9.1235261150        0.5837803725
 H        -8.7894234920        8.3705968694        2.1000300581
 H       -11.1000252191        7.4038296876        2.3191364900
 H       -12.2351281935        7.5280265331        0.8263961297
 H       -11.5904515167        8.8523220972        1.7277772994
 H       -11.1180527130       12.3760110706       -4.3909716514
 H       -10.4364580497       13.9101716768       -4.6499301680
 H       -12.1768024155       13.8592278873       -4.3775374756
 H       -10.5207087837       15.6054499347       -1.3441344456
 H       -10.3771948151       15.6399396054       -3.0838610647
 H        -9.2320463231       14.8041211126       -2.1676698674
 Na       -9.4696173684        1.2218120634        1.1131944252
