117

 C       -12.1543311699       14.4259030805       -1.1637737199
 C       -12.3863994778       13.7795943677       -2.4426016226
 O       -13.3885537418       13.2845469510       -2.9503002656
 C       -11.1299545026       13.7289976068       -3.3212722615
 C        -9.9495284344       13.0992862820       -2.5177751102
 O        -8.8670124766       13.5364309001       -2.3053502828
 C       -10.3943673719       11.5813161277       -1.9019692024
 C        -9.4747971988       10.7743206933       -0.8456339849
 C       -10.1786580212        9.3886897538       -0.7042049881
 O       -10.9262871196        9.0477680222       -1.5827849582
 C        -9.8893165389        8.3252033941        0.5284343616
 C        -9.2272310400        6.9997544526        0.1425301882
 O        -8.1420291753        6.6079177505        0.5333513378
 C       -10.0805168785        6.0836202304       -0.7429006219
 C        -9.1159807443        5.2128999769       -1.6555248381
 C        -9.2037589453        3.6586116337       -1.3483072798
 O        -9.3778114822        3.1189675809       -0.2408603123
 C        -8.7770814756        2.6991066641       -2.6360803280
 C       -10.0430414795        1.8614390381       -2.8948710489
 O       -10.8735437451        2.2804943902       -3.6727818989
 C       -10.1712627217        0.3071490370       -2.3029573945
 C       -11.6935944052        0.0110001233       -2.2280188368
 C       -12.1003811559        0.2493168327       -0.7129304189
 O       -12.2794279126        1.2879014064       -0.1601702693
 C       -12.4973833522       -1.1075487741        0.2582820573
 C       -11.1895312317       -2.0070133083        0.3382019902
 O       -10.1954981237       -1.6499532770        1.0023674075
 C       -11.1244701733       -3.2893780718       -0.4154346469
 C        -9.6084748851       -3.5816808906       -0.6689225455
 C        -9.1422113896       -4.0685604096        0.6553430526
 O        -9.8309071774       -4.6632903603        1.4459423968
 C        -7.5667931585       -3.9294210126        1.1816366992
 C        -7.3181472738       -2.4384372938        1.3976129730
 O        -7.3684064286       -1.6617463609        0.4312726140
 C        -7.0153323860       -1.7709786397        2.8689441196
 C        -6.7047437697       -0.2148766577        2.7748356945
 C        -7.7790755471        0.5108300481        3.5918620311
 O        -8.7783188809        0.9193533993        3.0331415520
 C        -7.5252142084        0.6343156986        5.0839024815
 C        -7.0543645840        2.3243107769        5.3654756964
 O        -6.0099948527        2.4294259897        5.8971289748
 C        -8.1637147364        3.3109590604        5.2566102298
 C        -8.7974364971        0.4553433927        5.8335212299
 C        -6.3810324002       -0.2075498922        5.6576760519
 C        -7.3783630016       -4.5875131013        2.5520125851
 C        -6.7155786521       -4.4092023825        0.0255218062
 C       -12.6728473419       -0.4727348971        1.6061374269
 C       -13.7865060317       -1.8568882216       -0.1631079884
 C        -8.4343246142        3.4625508052       -3.9411117889
 C        -7.5434342348        1.8806424219       -2.0918923113
 C        -9.0894980413        9.0491271127        1.5958812499
 C       -11.3016373858        8.1852554561        1.1074046267
 C       -11.3201834428       13.0404854285       -4.6869655146
 C       -10.9670728813       15.3602647452       -3.6668422234
 H       -13.1847626910       14.5032926561       -0.6000893368
 H       -11.8507321097       15.3844266997       -1.5236362808
 H       -11.5842743184       13.7218157311       -0.4701251817
 H       -10.8621061267       11.0222477562       -2.7957114128
 H       -11.1846813052       11.8278529866       -1.3174129372
 H        -9.3735582243       11.3211227913        0.0178309066
 H        -8.5005625965       10.7035498794       -1.3273905398
 H       -10.8255935761        6.7875252771       -1.1437170142
 H       -10.7000863045        5.5440661929       -0.0857319968
 H        -8.0559265048        5.2368108799       -1.2979870852
 H        -9.1962420944        5.4905437563       -2.6135567757
 H        -9.7393368933        0.2846727996       -1.3831907692
 H        -9.6460980530       -0.3073056988       -2.9444600340
 H       -11.9061041400       -1.0182448462       -2.2135157188
 H       -12.3212737583        0.6218531779       -2.9099564823
 H       -11.6890619231       -3.1662333616       -1.3624696490
 H       -11.5272245979       -4.0819897258        0.1916118087
 H        -8.9754632472       -2.7458184901       -1.0088172871
 H        -9.4621692281       -4.4367463473       -1.3333040228
 H        -6.1775223165       -2.2651610977        3.4237509510
 H        -7.9258385437       -1.9751416306        3.3516427302
 H        -6.7240437715        0.0820648046        1.6140641732
 H        -5.6924378413       -0.0874542800        3.0541323356
 H        -8.9047823043        2.9933788774        4.5406196063
 H        -7.8558818749        4.3245058181        5.0485964231
 H        -8.7444467585        3.3268223892        6.1894998180
 H        -9.5567466097        0.9834318223        5.2617115554
 H        -8.8953594923        0.8954121052        6.8786780821
 H        -9.2009343218       -0.5453022950        5.8235136949
 H        -6.6896065274       -1.2536345316        5.9693478359
 H        -6.0415423258        0.0668125112        6.7062168677
 H        -5.4368401114       -0.2776223040        5.0704648841
 H        -6.4716032875       -4.8763059869        3.0120058829
 H        -7.9793838666       -5.4091805112        2.6834525020
 H        -7.9089968876       -3.9088545309        3.2643926804
 H        -6.8209852501       -5.4459264601       -0.2615868778
 H        -5.6684962244       -4.1727539615        0.1719243568
 H        -6.9868558132       -3.8771101940       -0.9214559818
 H       -13.2436947605       -1.1404236953        2.4139968301
 H       -13.4928830137        0.2500096589        1.5867263940
 H       -11.7680155193       -0.0786161780        2.0870817194
 H       -14.0570648526       -1.7457798112       -1.1773456583
 H       -14.6193878478       -1.7611180423        0.5038431143
 H       -13.5383212377       -2.9097138033        0.0100213425
 H        -7.9391731598        2.7382048397       -4.6304778228
 H        -7.7005835594        4.1549517920       -3.6964127366
 H        -9.3565193722        3.7997027246       -4.3026656673
 H        -6.7576824051        2.5522454422       -2.3118621330
 H        -7.3958491633        0.9067407769       -2.5829151284
 H        -7.6807366302        1.6719404060       -1.0963742256
 H        -9.3104830420       10.1398175541        1.6327796433
 H        -7.9720516076        9.0221496840        1.4827537896
 H        -9.3154223567        8.6052238024        2.5283461193
 H       -11.4201921989        7.3558238265        1.8147930530
 H       -11.9613812203        7.8385957453        0.3751395614
 H       -11.7011828784        9.2053745700        1.4156444118
 H       -12.3991842763       12.7972974648       -4.8233482185
 H       -10.6648068021       12.1441803044       -4.8235489142
 H       -11.1227401066       13.7261624648       -5.5407053683
 H       -10.3214274756       15.8075558119       -2.8955497569
 H       -11.8939090596       15.8645187132       -3.5950037963
 H       -10.6265476753       15.6449970305       -4.5988771970
 Na       -9.7771940705        1.2086818315        1.0903862761
