117

 C        -7.4001931394       -5.6481960997        4.7789122849
 C        -6.8000957768       -5.3831311197        3.2538371926
 O        -5.9237367095       -6.1042886547        2.8174271119
 C        -7.2908726490       -4.0884684917        2.3703769380
 C        -8.9035872841       -4.2095408174        2.4373485351
 O        -9.5484333617       -4.8758507693        3.2613195603
 C        -9.7917031109       -3.2247520545        1.5764526609
 C       -11.2706468865       -3.2100089846        1.8391474823
 C       -11.9286010468       -1.8487835474        1.8109396158
 O       -12.4540048507       -1.4232715566        0.7562902166
 C       -12.1782890795       -0.9993571739        3.1848837301
 C       -10.9851042823       -0.0823150788        3.0544256109
 O       -10.0185917809       -0.1756099032        3.7718759526
 C       -11.1963378513        1.0559563531        2.0777475322
 C        -9.7639294969        1.5068902105        1.6813694871
 C        -9.7231030239        2.4325607258        0.4007608646
 O        -9.4058480348        3.5925645006        0.5194518519
 C       -10.1554412661        1.8570072745       -1.0314776398
 C       -11.5427884386        2.3664108715       -1.2466544252
 O       -12.3644239826        2.5182525580       -0.3802150137
 C       -12.1193671272        2.4629285057       -2.7752709147
 C       -12.9541705208        3.7686556292       -2.8424632047
 C       -12.2526834987        4.8906760898       -2.1860604903
 O       -11.1816078659        4.6861096885       -1.5912626879
 C       -12.8171535331        6.3193640441       -2.4291104322
 C       -11.5786654882        7.2822618815       -2.6765771785
 O       -10.4789841263        7.0701732974       -2.2494429957
 C       -11.6371228786        8.4853249969       -3.6813013795
 C       -10.3454272414        9.3405177201       -3.7118016816
 C       -10.5489460545       10.6767351831       -3.0686146443
 O       -11.6588943111       11.0429949277       -2.7129231868
 C        -9.2196882894       11.4603131274       -2.6712181567
 C        -8.4825522298       10.5828774909       -1.6162419535
 O        -8.0183161404        9.4787507327       -1.9626397932
 C        -8.3352550132       10.9510847377       -0.1272200968
 C        -7.3776353277        9.9584662618        0.5676183883
 C        -7.8134050702        8.4835939015        0.5113923226
 O        -9.0227816114        8.3084821003        0.4806297405
 C        -6.8019781894        7.3180473048        0.5483427224
 C        -6.7968945517        6.9074677011       -1.0135119015
 O        -7.6796010225        6.1479744743       -1.3625897557
 C        -5.7046970126        7.4601627272       -2.1419093153
 C        -5.3726491600        7.7250402369        0.8800581961
 C        -7.2835641086        6.2860903986        1.6725363942
 C        -8.3221857647       11.4844798406       -4.0145678199
 C        -9.4313910002       12.9232906765       -2.0077271550
 C       -13.8803375906        6.3774043943       -3.4869639794
 C       -13.3827715915        6.7291260533       -0.9815256439
 C        -9.1115318767        2.3047900382       -2.0461792657
 C       -10.2143458809        0.3336192560       -1.0431049560
 C       -13.5463280962       -0.2418753103        3.2199172671
 C       -12.1571127966       -2.0231144766        4.3978170046
 C        -6.9026743501       -2.6931055500        3.0291250700
 C        -6.6346467364       -4.1223310033        0.9354978159
 H        -8.3503971676       -6.1631454791        4.7565845971
 H        -7.5471074004       -4.6222209006        5.2336580768
 H        -6.6701084330       -6.2387082301        5.3327035025
 H        -9.5090574033       -3.6107046416        0.4984905741
 H        -9.3828697701       -2.2684527265        1.7879862676
 H       -11.3829458565       -3.7169824684        2.8403496483
 H       -11.9145207999       -3.7757998700        1.1480286561
 H       -11.5512865332        1.9283967792        2.6998352493
 H       -11.9572294889        0.8270014245        1.2797211262
 H        -9.0950822839        0.6517581696        1.4199203561
 H        -9.3171869980        1.9789794021        2.5064392433
 H       -12.9007529225        1.6500588852       -2.9125912820
 H       -11.2699931562        2.6235637842       -3.3913215249
 H       -13.9291934667        3.6247966438       -2.3842652999
 H       -13.3067071011        3.8772850596       -3.8943008620
 H       -12.5893856177        9.0838895108       -3.5767725111
 H       -11.7997470199        8.0074801910       -4.7127297972
 H        -9.9876020742        9.6226913222       -4.7804217986
 H        -9.5126840375        8.7258734002       -3.3695569839
 H        -9.3956192580       10.8905273245        0.2897757227
 H        -7.9625124025       11.9116091925        0.1708469411
 H        -7.4247931494       10.2396052330        1.6157081272
 H        -6.2603981085       10.1219586705        0.2867207817
 H        -5.4546578849        8.5067400588       -1.9422991802
 H        -6.1783855047        7.3707641492       -3.0975032859
 H        -4.8068558684        6.8494846625       -2.3174027338
 H        -5.2193814610        8.0198169980        1.9290623618
 H        -5.0660276689        8.4672851802        0.1830433301
 H        -4.7134463893        6.8669304499        0.7118596804
 H        -7.1346895190        6.6413467561        2.7104822995
 H        -6.5714083152        5.4196613701        1.6123778585
 H        -8.3082766257        6.0121141121        1.4558243351
 H        -7.7140930100       12.4168191786       -4.1150666889
 H        -8.9446577281       11.5130770500       -4.8976897014
 H        -7.7899755932       10.5713006361       -4.0983532255
 H        -8.6358240018       13.3240732702       -1.4195621779
 H       -10.3716327697       12.6077792469       -1.4116303658
 H        -9.6120820495       13.5891391757       -2.8169088721
 H       -14.6948108253        5.7645146093       -3.1327234806
 H       -13.3914268675        6.0044851035       -4.3977583798
 H       -14.2638191046        7.4119824384       -3.5870856648
 H       -14.1504360930        5.9504323050       -0.6929939570
 H       -13.8432505149        7.6466778789       -1.0157451166
 H       -12.6052409346        6.6731883065       -0.2172650860
 H        -9.2113126950        1.7809888347       -2.9343801435
 H        -8.0369050616        2.2089120357       -1.6487515116
 H        -9.1696735892        3.3096353480       -2.3549085213
 H       -11.1666065957       -0.1086047690       -0.7322054491
 H        -9.3009113501       -0.0627365180       -0.5620373155
 H       -10.0262639092        0.0643156205       -2.0263549915
 H       -14.3691044649       -0.9059717581        3.1393068114
 H       -13.4918938088        0.5844649894        2.4992504303
 H       -13.5562480187        0.3241480280        4.1364242812
 H       -12.8448416689       -2.8261313702        4.1786456400
 H       -12.3048889113       -1.5014694632        5.3599252556
 H       -11.2681063657       -2.6394947799        4.5308265938
 H        -7.3142049488       -2.6976641518        4.0614325737
 H        -7.0529701712       -1.8279938451        2.3661155703
 H        -5.7938701021       -2.6602876014        2.9937254967
 H        -6.0001932526       -5.0215152995        0.8687904460
 H        -6.1537080641       -3.2165043875        0.6670624392
 H        -7.4305496468       -4.3132191858        0.2735191211
 Na       -9.7264905550        6.0296083487       -0.2724448984
