117

 C       -11.8800835670       14.6386975341       -1.7961608124
 C       -12.2158947745       13.5487231068       -2.7994828303
 O       -13.2717098106       13.0072703114       -2.9329804020
 C       -10.9328170032       13.4222103654       -3.8496130696
 C        -9.8469952772       12.6902845174       -2.8913856393
 O        -8.8856201997       13.3225872362       -2.5319437766
 C       -10.1135520878       11.2605367343       -2.5469613252
 C        -9.4116621008       10.8992428906       -1.2853714945
 C        -9.7217381454        9.3594249677       -0.9836972606
 O        -9.9077584629        8.6742926041       -1.9522133407
 C        -9.6215561551        8.7498460658        0.4213213580
 C        -8.9086930364        7.3124700089        0.1789779213
 O        -7.8242912864        6.8918193818        0.6024030423
 C        -9.7426926417        6.1514795476       -0.6147252565
 C        -8.8874654134        5.0985629928       -1.1912914948
 C        -9.3563855720        3.6853295267       -1.1130643967
 O        -9.9318050864        3.3798428618       -0.0751286353
 C        -9.1589802328        2.5777613805       -2.1458007494
 C       -10.6087356591        1.8772338696       -2.5658460779
 O       -11.5717031180        2.4840342804       -2.9559284631
 C       -10.9966559092        0.4660951930       -2.2303111254
 C       -12.3784554934        0.3704829796       -1.5574718689
 C       -12.2409474216        0.4823182672       -0.0370729724
 O       -11.9359111701        1.4656595080        0.6123121324
 C       -12.3714065035       -0.9542672023        0.8522590137
 C       -11.1225909290       -1.7916071881        0.5516177068
 O       -10.0685053456       -1.1835674799        0.5455825129
 C       -11.2080416048       -3.2854684211        0.1354838957
 C        -9.6731634670       -3.6380079921       -0.3673862943
 C        -8.9390287204       -4.3276077411        0.7834593489
 O        -9.5716810641       -4.8871143052        1.6913970414
 C        -7.3850180814       -4.0511885756        0.8722395794
 C        -7.4081081894       -2.4836958040        1.1242720808
 O        -7.2686016856       -1.7897564029        0.1586405784
 C        -7.7428790366       -2.1099872241        2.6022482643
 C        -7.1749390330       -0.6531954703        2.6879255019
 C        -7.8699921501        0.5055241356        3.5124774662
 O        -8.7226832658        1.1241744853        2.9005886259
 C        -7.6459460537        0.7727818664        4.9930372855
 C        -7.1783468512        2.3836408149        5.3507738557
 O        -6.7091199113        2.6923202719        6.4612138375
 C        -7.8557644813        3.5122069377        4.5130319663
 C        -9.0311381343        0.7224605907        5.6379712077
 C        -6.5905210037       -0.0879944932        5.5901681691
 C        -6.8426651162       -4.9010421564        2.0345075676
 C        -6.6446893425       -4.4785098031       -0.3668742350
 C       -12.5373529056       -0.5609202331        2.2799435560
 C       -13.6988765997       -1.7153772114        0.5182067971
 C        -8.8241858446        3.0976716735       -3.4813371778
 C        -8.0395659914        1.6047115120       -1.5286646292
 C        -8.8345297166        9.5039165319        1.4098626909
 C       -11.1040595115        8.6992985429        0.7929052737
 C       -11.2412300814       12.4223303738       -5.0907427836
 C       -10.5635131375       14.7876038477       -4.4681555432
 H       -11.7882862681       14.1079835398       -0.8654224706
 H       -12.9036715723       15.2200709133       -1.9033701058
 H       -11.0441157476       15.3216795298       -1.9817525541
 H        -9.8843855511       10.5626878074       -3.2429171054
 H       -11.2391777596       11.1665646616       -2.4219079253
 H        -9.7893768368       11.4178263756       -0.3812034628
 H        -8.3691066785       11.0489311782       -1.2520003694
 H       -10.4354000888        6.6547503176       -1.1441223387
 H       -10.4183651066        5.7307547997        0.1656897806
 H        -7.9506049588        5.3190814916       -0.7822122164
 H        -8.9248648557        5.2694343039       -2.3366626227
 H       -10.3242614206       -0.1805871591       -1.7198498571
 H       -11.2295241753        0.0893963449       -3.1413691027
 H       -12.9541865977       -0.5147709445       -1.8666266349
 H       -12.7024956975        1.2623883796       -2.0160494721
 H       -11.8848094045       -3.3900467255       -0.7527231061
 H       -11.5977876719       -3.9223811472        0.8873338488
 H        -9.1572237938       -2.7296939075       -0.6495755510
 H        -9.7025272367       -4.3137829142       -1.2401449542
 H        -7.4379920492       -2.8381681630        3.3174651685
 H        -8.8376588958       -1.9819126200        2.6924274178
 H        -7.2493351231       -0.1933844181        1.6695631522
 H        -6.0847380837       -0.7153167458        3.0402784963
 H        -7.7268195443        3.5560979462        3.4389486960
 H        -7.4188641452        4.4210465339        4.9352872274
 H        -8.9118653573        3.5244330861        4.6549331842
 H        -9.8900502633        1.0754562291        4.9972131618
 H        -9.0941344355        1.3582298818        6.4735047757
 H        -9.3668372238       -0.2835465098        6.0057192494
 H        -5.6555794402        0.1571258032        5.0043197874
 H        -6.8552848165       -1.1487226433        5.7488298559
 H        -6.4190593698        0.2036883670        6.6850211604
 H        -5.8609975457       -4.6398449054        2.3816485946
 H        -6.8521447475       -5.9747136133        1.7431503256
 H        -7.3303730528       -4.7997917002        2.9183799650
 H        -6.6631587848       -5.5630197360       -0.4993551519
 H        -5.5591886218       -4.2793609289       -0.3051115463
 H        -7.0807842042       -4.1557881100       -1.2951417094
 H       -13.1542092190        0.2366747331        2.4368546024
 H       -11.5373799951       -0.1568600484        2.7171084259
 H       -12.4547732981       -1.4973001035        2.8265931423
 H       -13.6163544785       -2.0693529983       -0.5427723201
 H       -14.6523121761       -1.2679993444        0.7461652896
 H       -13.8769936150       -2.6725525799        1.0511350571
 H        -9.2668259803        2.4299823649       -4.1696491889
 H        -7.7476307993        3.1031057625       -3.6104106114
 H        -9.2598812907        4.0741001759       -3.6082333410
 H        -7.0700801423        1.9279147001       -1.9051029552
 H        -8.2211906855        0.6451249906       -1.8425910689
 H        -7.7834278143        1.7285334552       -0.4819200772
 H        -9.1556341128       10.5028063315        1.5489506251
 H        -7.8258874091        9.6801458345        1.1801341948
 H        -8.7623789411        8.9659843846        2.3993823349
 H       -11.2362643138        8.3592605399        1.8257311502
 H       -11.7428855607        7.8596637060        0.2799171599
 H       -11.4986155260        9.6997601496        0.7949746309
 H       -11.2491806886       13.0189018104       -6.0199767438
 H       -12.3328361100       12.1287070909       -4.9023893364
 H       -10.7443580394       11.4270973441       -5.0801223281
 H       -10.5800870018       15.6498322516       -3.9270055173
 H       -11.2593606139       14.9990563138       -5.2704809986
 H        -9.5626253256       14.8286721900       -4.8721334376
 Na       -9.7419133676        1.3336716102        1.0297567344
