117

 C       -11.8546256384       14.7823649564       -1.8711708131
 C       -12.0896689706       13.6741917983       -2.9442672229
 O       -13.1068816319       12.9862673162       -2.9344821012
 C       -10.9676706024       13.3445643256       -3.9885641749
 C        -9.8619704859       12.7143709435       -3.1092910747
 O        -9.0086508430       13.3260952836       -2.5408089145
 C       -10.2117058585       11.1794984119       -2.7759725907
 C        -9.5126834704       10.7907322060       -1.4456936448
 C        -9.5282771614        9.2375081505       -1.1834893950
 O        -9.6604272115        8.4386464041       -2.0822332646
 C        -9.4860482622        8.6234837099        0.3474700787
 C        -8.9355080100        7.2255195304        0.1732163084
 O        -7.8213501887        7.0410157375        0.4954122584
 C        -9.7663273495        6.0974192015       -0.4690634950
 C        -8.8461628342        5.1247797494       -1.1387171545
 C        -9.4581167612        3.6749561968       -0.9626138750
 O        -9.9018796385        3.4695995470        0.1590524472
 C        -9.2876902877        2.6327295803       -2.1188835650
 C       -10.8314580280        2.0179064346       -2.2585452610
 O       -11.5693572773        2.8329735742       -2.7548937834
 C       -11.2544587492        0.4910269414       -2.1088505488
 C       -12.5882322459        0.3921595013       -1.3602320901
 C       -12.3472334430        0.4532294176        0.0791364751
 O       -11.9849804805        1.4654897395        0.6853145202
 C       -12.4024421272       -0.9126142788        0.8262135698
 C       -11.1045978464       -1.7282769019        0.4410888271
 O       -10.0141164660       -1.2152819797        0.5836401008
 C       -11.1271801943       -3.2240493700        0.2796229594
 C        -9.7826227242       -3.7456902974       -0.3015299890
 C        -8.9613987441       -4.2687669545        0.8789072498
 O        -9.4401284952       -4.9047851568        1.8084830752
 C        -7.4021096417       -4.1418710525        0.7930939172
 C        -7.3356027572       -2.5847529805        1.0493694151
 O        -7.1583482799       -1.6906024306        0.2141877873
 C        -7.7492330945       -2.0666502064        2.4828673915
 C        -7.1780743951       -0.5722130088        2.6586966035
 C        -8.0276634424        0.4922331976        3.5320805354
 O        -8.8209734383        1.2268877391        2.8926012455
 C        -7.6995636344        0.8914761210        4.9762698840
 C        -7.3121108499        2.3723860388        5.3578628238
 O        -6.7742046345        2.5881366098        6.4317275742
 C        -7.8055716206        3.4925481233        4.3870357195
 C        -9.0907289146        0.8615117062        5.6461230078
 C        -6.5988899789       -0.1259371920        5.5347417709
 C        -6.7751021600       -4.9251028605        1.9828074152
 C        -6.5659657003       -4.5363856595       -0.4495408978
 C       -12.3366630869       -0.5694168911        2.3679225920
 C       -13.7409063638       -1.6159938484        0.5002502842
 C        -8.7429321458        3.3198080974       -3.4434012021
 C        -8.2590002806        1.5662696052       -1.5216013688
 C        -8.6276271139        9.3339818196        1.4642990734
 C       -10.9893020654        8.5020546920        0.7238896502
 C       -11.1826149515       12.3298769629       -5.2700084153
 C       -10.5257059249       14.6547799974       -4.5412324754
 H       -11.7596633467       14.0520896393       -1.0926701336
 H       -12.6903417886       15.3493556528       -1.7762534891
 H       -11.0304476559       15.4048092933       -2.0295373335
 H        -9.6474731185       10.5099501572       -3.4111452580
 H       -11.2904331164       10.8957427627       -2.9238207284
 H        -9.9834725516       11.0786441121       -0.4256433438
 H        -8.4599144676       11.1887748957       -1.3609683606
 H       -10.6315431013        6.6357307439       -0.9592099055
 H       -10.3220443256        5.5837905738        0.3024959062
 H        -7.8787106833        5.2746452644       -0.5883847831
 H        -8.7017689094        5.4316554313       -2.2195042697
 H       -10.6519753222       -0.1815716851       -1.4480338752
 H       -11.3289576737        0.0673835260       -3.1663853724
 H       -13.1806534672       -0.4992606086       -1.6172535840
 H       -13.0454170616        1.2983726945       -1.6897057887
 H       -11.8562976486       -3.6329413569       -0.3292593999
 H       -11.4002396579       -3.5791760410        1.2767936049
 H        -9.2563223749       -2.9062317858       -0.7134064389
 H       -10.0369251375       -4.4840700887       -1.0843450621
 H        -7.4087327070       -2.6811424726        3.3285166009
 H        -8.9055241607       -2.0627862112        2.5702486115
 H        -7.0057106782       -0.0239879443        1.7764068564
 H        -6.1713498486       -0.7692662911        3.2200831681
 H        -7.2756703278        3.5059593765        3.4001854206
 H        -7.6292730855        4.4490445973        4.8317483797
 H        -8.8614692738        3.3988667766        4.0820471138
 H        -9.9332413706        1.1686125955        5.0603806844
 H        -9.1777171360        1.4649910136        6.5897556831
 H        -9.3283013351       -0.1637145381        5.9845489833
 H        -5.6151981913        0.2929524913        5.3987023035
 H        -6.7778972299       -1.0925008355        5.1140693835
 H        -6.7640459803       -0.3808770608        6.4963015973
 H        -5.7742541603       -4.6975559998        2.0015950818
 H        -6.9338429840       -5.9722445239        1.8722305920
 H        -6.9995290088       -4.5626206846        2.9677951279
 H        -6.5268662514       -5.7081559214       -0.5199027727
 H        -5.5260637093       -4.2993057605       -0.3925685442
 H        -7.0482400352       -4.3331629960       -1.3835403234
 H       -12.5056340119        0.4989859994        2.5531666338
 H       -11.3530676755       -0.7228210052        2.7878066179
 H       -12.7560072118       -1.3587359318        2.9585366995
 H       -14.1563439298       -1.5170515540       -0.5765913774
 H       -14.5532178978       -1.3191122368        1.2506528826
 H       -13.8771716399       -2.8143143451        0.6002212375
 H        -8.5821299271        2.6483095500       -4.2188854740
 H        -7.8085029475        3.7331092701       -3.0516583179
 H        -9.4403704049        4.1648318038       -3.7233677982
 H        -7.1849795192        1.7744269402       -1.9156348290
 H        -8.5047497962        0.5276836130       -1.8079003236
 H        -7.9577262384        1.7784603189       -0.4635845737
 H        -8.6548485068       10.3893717351        1.3509662971
 H        -7.5036190927        9.1890232632        1.3869907861
 H        -8.8413847639        9.1228039573        2.4222965514
 H       -10.9392386878        8.2408776721        1.8431584375
 H       -11.5671088247        7.7313519731        0.3486927385
 H       -11.5223917433        9.4572853294        0.7883034074
 H       -10.9969238556       12.8826060086       -6.2000032204
 H       -12.2692468472       12.2179150234       -5.2285645192
 H       -10.8220058467       11.3215917148       -5.1536472675
 H       -10.6749706426       15.6325132936       -4.0748405549
 H       -10.8744123519       14.8238070379       -5.4797377298
 H        -9.4646699285       14.6132271835       -4.6282025175
 Na       -9.7807547632        1.2898056540        1.0824923263
