117

 C       -11.8505186038       14.7419227126       -1.9676603113
 C       -12.0553370740       13.6550741701       -3.1116701803
 O       -13.0255626863       12.9214293755       -2.9876725433
 C       -10.9107418442       13.3292022366       -4.2323182326
 C        -9.9454879365       12.6119418317       -3.1744525162
 O        -9.1112317809       13.2734793013       -2.5734445887
 C       -10.0756202634       11.0884667537       -2.8861147044
 C        -9.5813385017       10.6128829625       -1.4858615866
 C        -9.4577487203        9.1312922867       -1.2822806746
 O        -9.3672052818        8.3424239059       -2.2102357767
 C        -9.4183234109        8.6018532255        0.2558285478
 C        -8.8086283879        7.1885049630        0.1769013451
 O        -7.6411851881        6.9583741862        0.3921214778
 C        -9.7852035165        6.1085104252       -0.2776633636
 C        -8.9129540384        5.1420889206       -1.0963783374
 C        -9.4316828324        3.6499891249       -0.7938938374
 O        -9.8077065353        3.3230261482        0.3256919777
 C        -9.3245709980        2.6980967485       -1.9537060307
 C       -10.8574521445        2.2593069906       -2.2214243419
 O       -11.6733706583        3.1264891506       -2.4813484698
 C       -11.2971975815        0.8255700209       -2.1322605503
 C       -12.7883552339        0.5795717267       -1.3358910463
 C       -12.4925500135        0.4292923724        0.1737797951
 O       -12.1233498481        1.4482198507        0.6967451590
 C       -12.4634168583       -0.9152536214        0.9302849376
 C       -11.0898895849       -1.6797312098        0.6168063878
 O       -10.0667840979       -0.9866339856        0.5655607691
 C       -11.1016591847       -3.1910705346        0.3157785124
 C        -9.9232946753       -3.9725399658       -0.2675798323
 C        -8.8558480461       -4.4814672125        0.8812024498
 O        -9.3571915605       -4.8437404500        1.8687539939
 C        -7.2928831274       -4.1422402795        0.8999577716
 C        -7.2245261677       -2.4890851471        1.1055435086
 O        -6.9611763560       -1.8072393089        0.1406308479
 C        -7.7171172525       -1.7892286555        2.4841603663
 C        -7.1480232771       -0.3829434542        2.6417788594
 C        -7.9699572626        0.5795193290        3.4834198821
 O        -8.8930245284        1.2700019413        3.0111400103
 C        -7.8297095680        0.7833588738        4.9210860041
 C        -7.3680520248        2.3551842748        5.2458587704
 O        -6.8084232008        2.4871791129        6.2510383323
 C        -7.6954377493        3.4980863706        4.2859219448
 C        -9.1621788984        0.7320423082        5.7986939297
 C        -6.7529999442       -0.1180245696        5.6619482734
 C        -6.6447345086       -4.9359902664        2.0110412882
 C        -6.7197447327       -4.4376583381       -0.5399736787
 C       -12.1600078067       -0.7314710493        2.5383478524
 C       -13.7843764254       -1.5770170989        0.6318668207
 C        -8.7927001876        3.2717769036       -3.2475473858
 C        -8.4789713124        1.4906107637       -1.6314639027
 C        -8.6002759345        9.3540048895        1.2289718280
 C       -10.9298311819        8.4985807534        0.7791483427
 C       -11.3896696852       12.3780965408       -5.2508275857
 C       -10.2122673261       14.7187574507       -4.8172397424
 H       -11.8204394548       14.1701272783       -1.0162639382
 H       -12.5785730846       15.4937676569       -2.0300221849
 H       -10.9679627057       15.2000377324       -2.3401023726
 H        -9.4600466535       10.4027694716       -3.6935268695
 H       -11.0999487801       10.8156888310       -2.9819382177
 H       -10.2488793515       10.9116330937       -0.6568203913
 H        -8.5497935809       10.9914062956       -1.0957524734
 H       -10.6687468131        6.6689878130       -0.8699950832
 H       -10.4163513922        5.6213512911        0.4828761326
 H        -7.8187222943        5.0740749805       -0.6343738480
 H        -8.8198984735        5.4828373840       -2.0568306319
 H       -10.8831332902        0.1335430387       -1.3635152357
 H       -11.2432007448        0.2995305575       -3.2108894780
 H       -13.1129460884       -0.3874336643       -1.6750832203
 H       -13.5630381762        1.3933917204       -1.5163526834
 H       -11.9085643581       -3.4953733374       -0.3238793886
 H       -11.4497055974       -3.6696716682        1.2832888651
 H        -9.3821368543       -3.2908184190       -0.9465241642
 H       -10.4675220216       -4.7415348551       -0.8207154231
 H        -7.4307514564       -2.3832848521        3.4271044391
 H        -8.8214602221       -1.8127178457        2.4241653658
 H        -7.1468674483        0.1841171357        1.7153674012
 H        -6.1774074614       -0.5470397035        2.9547852767
 H        -6.9978328029        3.5041749562        3.4374342299
 H        -7.7527283297        4.5300458786        4.6553482742
 H        -8.6380919410        3.1810161084        3.7805000320
 H        -9.9566049619        1.3579213390        5.4577818600
 H        -8.9857869999        1.0453512850        6.8777494058
 H        -9.5958077426       -0.2401901773        5.9023291205
 H        -5.8555998950        0.3520826483        5.7149916456
 H        -6.7953240889       -1.0558311879        5.2359439756
 H        -7.1640896004       -0.3050740706        6.6331332690
 H        -5.5445322612       -4.8952450007        2.0442586433
 H        -7.0070392734       -5.8965641165        1.8781141067
 H        -6.8393531226       -4.5297035119        3.0485368994
 H        -6.7355849075       -5.4928404410       -0.7203125809
 H        -5.6607323222       -4.2400408681       -0.7012400508
 H        -7.4287128294       -4.1105234947       -1.3401347852
 H       -12.0774738834        0.4054557637        2.6281901851
 H       -11.2617477188       -1.1647488210        2.9391744422
 H       -12.8593767633       -1.2305555526        3.1585192078
 H       -14.3794189264       -1.2380369037       -0.2401797704
 H       -14.4396426275       -1.5070580027        1.5878314929
 H       -13.8031734814       -2.6503747701        0.4750760961
 H        -8.2593463093        2.4688310533       -3.8682312583
 H        -8.1343255706        4.0910563111       -3.0200857322
 H        -9.6594440148        3.6482080641       -3.7650105954
 H        -7.4277982809        1.6764350157       -2.0022143347
 H        -8.8132482236        0.4590941343       -2.1484979974
 H        -8.1677520958        1.4920866574       -0.5640302209
 H        -8.3981298611       10.4313133920        1.1337480790
 H        -7.5841920759        8.9796008417        1.2897277305
 H        -8.9576062959        9.2948500753        2.2696610628
 H       -11.0182085569        8.0642888345        1.8014982065
 H       -11.6018406888        7.9651515480        0.1311042800
 H       -11.4399357817        9.4684007725        0.9407026669
 H       -10.9661325419       12.6587009815       -6.1794557747
 H       -12.4635727235       12.3592886179       -5.4013643700
 H       -11.0748009397       11.3879181813       -4.9605485115
 H       -10.4937015039       15.6467552650       -4.2377957235
 H       -10.4993698433       15.0164558261       -5.8451361873
 H        -9.1402784240       14.8001535081       -4.7981118308
 Na       -9.8981807151        1.2046701279        1.0073359118
