117

 C       -11.6745269368       14.9495553464       -2.9225336554
 C       -11.9121365925       13.5193904756       -3.5514835271
 O       -12.9600187323       12.9983868822       -3.3846393157
 C       -10.6225672993       13.0491251002       -4.6420309843
 C        -9.7719524373       12.2512824684       -3.5978566768
 O        -8.9570811821       12.8516928357       -2.9257482580
 C        -9.9950546091       10.7214144950       -3.3805920975
 C        -9.8782854124       10.2635111014       -1.8467345923
 C        -9.0526301355        8.9725843022       -1.4956562875
 O        -8.4910885856        8.3096039182       -2.3386648449
 C        -9.1048641685        8.7608078480        0.0325670029
 C        -8.4595448497        7.3081653313        0.1873776863
 O        -7.2627588267        7.1513875439        0.3062797819
 C        -9.1657719057        5.8954989220        0.2527392848
 C        -9.1643135407        4.9895826814       -0.9922515800
 C        -9.2203765961        3.4892890805       -0.6977994456
 O        -8.6895054885        3.0101177191        0.3175736798
 C        -9.8726813387        2.5953671922       -1.7960200988
 C       -11.4657293980        2.3848454068       -1.4708280885
 O       -12.0565637696        3.3315318834       -0.9698764951
 C       -12.0789286804        1.0921271626       -1.9230925747
 C       -13.2697973124        0.7790365577       -1.0206807094
 C       -12.7170440554        0.5282768691        0.5872277581
 O       -12.1930461098        1.4811800770        1.1099763004
 C       -12.7495728427       -0.9895163398        1.1276802993
 C       -11.4771371442       -1.6133001103        0.4648785887
 O       -10.4997623762       -0.9662361199        0.0749706524
 C       -11.1752204365       -3.2107515736        0.6657844805
 C        -9.9521685726       -3.8085420985        0.0646191072
 C        -8.8668763156       -3.8978873961        1.1777177506
 O        -9.3230826407       -3.7769224550        2.3535280371
 C        -7.3451818347       -3.7835219495        0.8819323085
 C        -6.9430307540       -2.2148873042        1.0464589292
 O        -6.1962037775       -1.5167713882        0.3939764862
 C        -7.5980223155       -1.5530601380        2.3481231109
 C        -7.3909774303       -0.0275729816        2.5199155522
 C        -8.3882753017        0.4255404974        3.5965149654
 O        -9.5159271397        0.5521383236        3.2078044832
 C        -7.8879257320        0.7294154295        5.0272667015
 C        -7.1828128850        1.9909361629        5.1268089038
 O        -6.6424715054        2.2506610278        6.1795476952
 C        -7.4452924569        3.1813525226        4.2444384882
 C        -9.0755432881        0.8691353055        6.0697993608
 C        -7.0139286329       -0.4243624552        5.5676745716
 C        -6.4681606022       -4.4961927440        2.0101830149
 C        -6.8386602093       -4.1337083968       -0.4797627620
 C       -12.4122696875       -1.1155390679        2.6061188235
 C       -14.1660756787       -1.7002987541        0.9684369150
 C        -9.7000462306        3.0983179052       -3.2428928397
 C        -9.0720555634        1.2478642510       -1.7174040908
 C        -8.1181426993        9.8758671607        0.6349888226
 C       -10.4795903203        8.8448689998        0.7264337157
 C       -11.3168410521       12.1329265717       -5.7233700103
 C        -9.9859257846       14.2569829825       -5.2552765312
 H       -12.7183458777       15.2980271761       -2.7142462704
 H       -11.0387701325       15.5459547327       -3.5828148440
 H       -10.9889145984       14.8382680894       -2.0557419971
 H        -9.2207955741       10.2757920626       -3.9885963075
 H       -11.0646362732       10.7119286634       -3.8405684583
 H       -10.9066764627        9.9421888831       -1.5111450985
 H        -9.7629631046       11.2119046672       -1.2263379007
 H       -10.1068914219        5.8459326076        0.7756048969
 H        -8.4229239874        5.2710465608        0.9345443896
 H        -8.1459172640        5.2810488830       -1.4015199155
 H        -9.8664357287        5.0491863693       -1.9310654518
 H       -11.3752968091        0.1879984353       -2.0916017463
 H       -12.5216688720        1.3097742684       -2.9123759040
 H       -13.7761781734       -0.1344930400       -1.4061985257
 H       -13.9311612782        1.6486624834       -1.2349536637
 H       -12.0922927490       -3.6828954559        0.1898437970
 H       -11.2814036691       -3.5699792484        1.6701154793
 H        -9.5891622073       -3.0895281459       -0.7009913647
 H       -10.0743456465       -4.8297538770       -0.3022755982
 H        -7.0495243810       -2.0946813240        3.1802999612
 H        -8.6867616573       -1.7265031215        2.4151751408
 H        -7.4610727879        0.3958485078        1.5313720113
 H        -6.3748675320        0.2407255653        2.8168285373
 H        -7.8068666285        2.9033380851        3.2406476829
 H        -6.6558539712        3.9368034888        4.0673655790
 H        -8.3051389791        3.6859197754        4.6891389392
 H        -9.9053961848        1.5449774036        5.7398276591
 H        -8.6926095752        1.2009374052        6.9822172958
 H        -9.6130906499       -0.0542283449        6.3206296761
 H        -6.2962491181       -0.7984116055        4.8736751981
 H        -7.6618371781       -1.2328478556        5.6962100956
 H        -6.5222585211       -0.0159933855        6.3685383244
 H        -5.4584577927       -4.0318831330        2.0129843713
 H        -6.2724191257       -5.6227814372        1.8794967531
 H        -6.9468944698       -4.3998736044        2.9335414070
 H        -6.9882947138       -5.1461420187       -0.9131573049
 H        -5.7458548051       -3.9117223171       -0.5074196417
 H        -7.1759587661       -3.3326794881       -1.1356406400
 H       -11.8939758769       -1.9511628763        2.8792734650
 H       -13.4250566888       -1.2236442550        3.1362347282
 H       -11.7282661661       -0.3294982682        2.9180647369
 H       -14.1954647559       -2.7828284449        1.0095778456
 H       -14.7290346719       -1.4899039518        0.1239970454
 H       -14.5778559799       -1.4649817947        1.9744011594
 H       -10.0494672923        2.2859564139       -3.8585641219
 H        -8.5906603539        3.1766779190       -3.4416139788
 H       -10.1354795530        4.0742064220       -3.6016801604
 H        -8.2522633333        1.2182299940       -0.8580979285
 H        -8.3564997571        1.1801211486       -2.5523568915
 H        -9.5664254195        0.2118877160       -1.6990651573
 H        -8.5027340685       10.8973188785        0.8463116882
 H        -7.0806697703        9.9722985592        0.2073579329
 H        -7.9040306956        9.6189965839        1.6614040283
 H       -10.2700023135        9.0024817345        1.7671917721
 H       -11.2685070005        8.1171739632        0.4734096204
 H       -11.0753533027        9.6792231813        0.4557892290
 H       -10.8819251817       11.1647426795       -5.7397003015
 H       -11.2179395625       12.6551862513       -6.6838250115
 H       -12.2807166497       11.8160916679       -5.4343708347
 H        -9.2013267485       14.6752407784       -4.6751811294
 H       -10.6949950455       15.0954089435       -5.3385242137
 H        -9.7018068799       14.1190368844       -6.3312231339
 Na      -10.0059898667        1.2083193704        0.9730722141
