117

 C       -11.7008520278       14.9794547465       -2.9514077753
 C       -11.8470714982       13.6103514994       -3.7853331062
 O       -12.8624670550       12.8728076946       -3.5964412086
 C       -10.6416441493       12.9939684795       -4.6783827636
 C        -9.6761321243       12.2830548184       -3.7081847172
 O        -8.8782878823       12.8430307196       -3.0222589035
 C       -10.0097965262       10.6097892353       -3.4017560865
 C       -10.0113016239       10.2291298590       -1.9328520153
 C        -9.1574718864        9.0083211326       -1.5891597098
 O        -8.4663033607        8.3279221468       -2.3236736198
 C        -8.9535620224        8.6182659649        0.0309857574
 C        -8.2119259752        7.1749118926        0.2348795444
 O        -7.0427649206        7.1705648721        0.2897813085
 C        -9.0430088759        5.8655305039        0.2994892570
 C        -9.1313692444        5.0363156631       -0.9851969216
 C        -9.2659919181        3.5619367929       -0.7738350043
 O        -8.7767191133        3.0872565277        0.2543345698
 C        -9.8551083481        2.5386129360       -1.7373617691
 C       -11.4604861436        2.3831938760       -1.2391595947
 O       -12.0486224832        3.2752550011       -0.7282109657
 C       -12.2458552744        1.1701014282       -1.8133799811
 C       -13.3968921700        0.7286414232       -0.7384712221
 C       -12.7228956462        0.4269889393        0.5852317392
 O       -12.1187484710        1.3111981831        1.1630312043
 C       -12.8030345667       -0.9245667905        1.1068339170
 C       -11.5810782471       -1.6497520537        0.4828923850
 O       -10.6571002326       -0.9999977690        0.0862580441
 C       -11.3812889848       -3.1967793316        0.6012376303
 C       -10.0007583429       -3.6762178689        0.0748346575
 C        -8.8684567605       -3.6601163351        1.2527823499
 O        -9.2193458464       -3.5456749670        2.3894771537
 C        -7.2208767354       -3.6148861950        0.8955518405
 C        -6.9010315862       -2.1469321569        1.1280253533
 O        -6.2027463234       -1.6290288493        0.3041581481
 C        -7.5528216542       -1.4896442059        2.3593783114
 C        -7.4190940733        0.0169622461        2.6049098755
 C        -8.5339747960        0.4046882110        3.6699514309
 O        -9.7129669222        0.6304591237        3.3539186597
 C        -8.0041385207        0.6115265338        5.0726198806
 C        -7.1141147092        2.1255141121        5.3060821173
 O        -6.3365894854        2.3068604125        6.1871080950
 C        -7.3852612075        3.1839176703        4.2066827608
 C        -9.1631538171        0.8200401013        6.0892970198
 C        -7.0254053769       -0.5572676333        5.5993593533
 C        -6.5541608273       -4.5479910805        1.9594157795
 C        -6.6307519593       -4.0462371172       -0.5373279664
 C       -12.5675314527       -0.9819239396        2.6713846496
 C       -14.1325239213       -1.6902352010        0.7617878949
 C       -10.1254024421        3.1636470431       -3.1019104901
 C        -9.1119463425        1.1963619118       -1.7326620056
 C        -8.0894541516        9.8195926317        0.5024227384
 C       -10.2699100797        8.6062219340        0.7337278175
 C       -11.4240609805       12.1025544848       -5.7508076272
 C        -9.8089338601       14.1095623582       -5.4991885483
 H       -12.7674638270       15.4216881714       -2.7471547503
 H       -10.9588761340       15.6083233665       -3.4621079717
 H       -11.0754270230       14.7050705577       -1.9526634489
 H        -9.2223598735       10.0864356760       -3.8271330443
 H       -10.9767974824       10.5170404963       -3.9198473534
 H       -11.0335799979        9.9423188171       -1.5818986705
 H        -9.8151706300       11.0710666058       -1.3330600217
 H       -10.1111634757        6.1363655860        0.4251284910
 H        -8.7489376439        5.2351476976        1.1483562143
 H        -8.2900902656        5.3941147221       -1.5784880120
 H       -10.0330792601        5.2630272554       -1.7155270747
 H       -11.6367158850        0.3469661106       -1.8193402375
 H       -12.6029081499        1.2754252439       -2.7598459392
 H       -13.8588336016       -0.2809430699       -1.0446933123
 H       -14.2165997698        1.4153020562       -0.6017041292
 H       -12.2817194716       -3.6448167232        0.0300356961
 H       -11.5893468318       -3.6176542197        1.6216013533
 H        -9.6744822593       -2.9822433775       -0.6948138236
 H        -9.9924064831       -4.7329690885       -0.2695144355
 H        -7.2846709907       -2.0878201335        3.1730527655
 H        -8.6247054512       -1.5287753563        2.1683412982
 H        -7.6172059615        0.4438660413        1.6668851976
 H        -6.3826830964        0.4686345925        2.8328533458
 H        -8.0059779814        2.6100959646        3.4568378198
 H        -6.6005487190        3.5988479572        3.6216031279
 H        -8.0400778161        4.0222149522        4.5174658674
 H        -9.9002372160        1.5326270782        5.8706998551
 H        -8.7059403910        1.0654748678        7.0643782648
 H        -9.7443007344       -0.0696351729        6.2662867558
 H        -6.1524536625       -0.6426493695        4.9167768636
 H        -7.4750610939       -1.5683632643        5.4033448062
 H        -6.6596129324       -0.2110965778        6.5351683674
 H        -5.4512838645       -4.4772481734        2.0666404300
 H        -6.7197988944       -5.6112225920        1.6753759295
 H        -7.1654284947       -4.4941544940        2.9358864290
 H        -6.6027983858       -5.1692228374       -0.7331840192
 H        -5.6451305177       -3.6831608732       -0.6067665412
 H        -7.0740518517       -3.5031936966       -1.3089170266
 H       -12.7853206312       -1.9245964771        3.2680598079
 H       -13.2910471438       -0.3087550694        3.0357247330
 H       -11.4889482040       -0.7290671928        2.8261176714
 H       -14.1947627522       -2.3825656914        1.4682182908
 H       -14.1556325770       -2.2404078114       -0.1195750530
 H       -14.9368949062       -1.0901664116        0.9465598724
 H       -10.2247752696        2.5534682846       -3.9581891156
 H        -9.3218243839        3.9309888520       -3.2671299140
 H       -11.0273878127        3.8628302580       -2.9667530143
 H        -8.5248355378        1.0316947933       -0.8827984979
 H        -8.2919819815        1.2272929444       -2.4723922217
 H        -9.6200436431        0.3156261579       -1.9767005178
 H        -8.4044253792       10.8501561835        0.2777481345
 H        -6.9547326424        9.7026191863        0.2729121154
 H        -8.0633894357        9.8717721356        1.5557182506
 H       -10.1108527305        8.8168145877        1.8812434452
 H       -10.9920064595        7.8934559495        0.5402681887
 H       -10.8573530958        9.4875762836        0.3827424182
 H       -10.8009122095       11.2951834387       -6.0445212315
 H       -11.5952654419       12.7985628129       -6.5192104771
 H       -12.2132487884       11.5378175682       -5.4022782793
 H        -9.2923066083       14.9318595107       -4.9028682389
 H       -10.4901484581       14.6700429655       -6.0960124889
 H        -9.1621792810       13.6466450718       -6.2984710321
 Na       -9.9042362007        1.2796048531        0.9499185498
