117

 C       -11.2470067798       14.5635164723       -3.8093775971
 C       -11.5339819898       13.2308540837       -4.5589938676
 O       -12.6596010506       12.8006324207       -4.5485742486
 C       -10.3705023155       12.3951668714       -5.1495521088
 C        -9.7892591002       11.7638033662       -3.8840067069
 O        -8.9944089498       12.4839255975       -3.2393548755
 C       -10.0376892647       10.3711524496       -3.4956206569
 C        -9.2537209255       10.1290552704       -2.2622812997
 C        -8.9452881377        8.5645752084       -1.8162605141
 O        -8.9203128355        7.6254373440       -2.5712610722
 C        -8.5279786657        8.5143778497       -0.2390751681
 C        -7.6057510088        7.1617362215       -0.1985896763
 O        -6.4552843673        7.1301727719       -0.4734259975
 C        -8.2792103547        5.7489886905        0.2277436946
 C        -8.7715238307        5.1213966813       -1.0956163890
 C        -9.4650720194        3.7286078568       -0.8286067583
 O        -9.1719236849        3.0974005803        0.1725874756
 C       -10.6160576185        3.1426723527       -1.7521804762
 C       -11.8350281098        2.6664478103       -0.7615677393
 O       -12.1969827030        3.1711741430        0.2727744906
 C       -12.7916420077        1.5197038410       -1.2996438218
 C       -13.6683433006        0.9964731615       -0.1422741197
 C       -12.9872915820        0.2981335257        1.0624333190
 O       -12.6849642512        0.9688059282        2.0252321386
 C       -12.9696611855       -1.2884656515        1.1683400516
 C       -11.4764679227       -1.8027707172        0.6190741291
 O       -10.5231091152       -1.1248600511        0.9674387657
 C       -11.3288975627       -3.1967264674        0.0151370585
 C        -9.8719376474       -3.6790662651       -0.3055714155
 C        -9.0132777287       -3.4981944166        0.9602996068
 O        -9.5521431979       -3.7008599415        2.0789565092
 C        -7.4837322065       -3.2974501697        0.9284327709
 C        -7.1697335981       -1.8664389117        1.3393869508
 O        -6.7084323463       -1.1368644947        0.5490025238
 C        -7.7938431856       -1.2552726453        2.6620376629
 C        -7.1301908232        0.0974505042        2.9747119472
 C        -8.0749715523        0.9223611827        3.8818885031
 O        -9.1013352517        1.4249980860        3.4480724504
 C        -7.7788605761        1.0333439582        5.4374018728
 C        -6.6835104905        2.1714017216        5.6379546382
 O        -5.6128213482        1.9302328827        6.1220572745
 C        -7.0509510988        3.5824715246        5.4710888342
 C        -8.9727461311        1.4237236626        6.4388451817
 C        -7.2310528100       -0.2594347950        5.9742493252
 C        -6.8647464070       -4.4617569248        1.8311191958
 C        -7.0710412660       -3.5719368521       -0.4983834338
 C       -12.9912040566       -1.8446497116        2.6221748278
 C       -14.2288880231       -1.9439425971        0.6240104490
 C       -11.2332969528        4.1677011014       -2.7647851504
 C       -10.1378769061        1.9288182987       -2.5755923967
 C        -7.5550968876        9.7457041055        0.1319013485
 C        -9.7366036069        8.4401999951        0.7406770245
 C       -11.0524980584       11.2610752056       -6.1720959231
 C        -9.3502328232       13.2119544676       -5.9311533935
 H       -11.3729648105       14.4404818991       -2.7099050059
 H       -11.9329961497       15.2989462176       -4.0655769892
 H       -10.1751884108       14.8566619218       -3.8584852637
 H        -9.7677942197        9.6957931576       -4.2832251757
 H       -11.1914993815       10.2019355744       -3.3314026472
 H        -9.8887334735       10.5775963836       -1.5601217802
 H        -8.3960174638       10.8190559106       -2.1978161974
 H        -9.0617576859        6.0270309415        0.8877093901
 H        -7.5493707299        5.0131309357        0.5488167430
 H        -7.8887654263        5.0042136004       -1.6181021376
 H        -9.3858372257        5.7362062792       -1.8054363599
 H       -12.0434722850        0.7874549042       -1.6733053147
 H       -13.4642197652        1.6881289096       -2.1284639269
 H       -14.5359146671        0.4338468176       -0.3000238549
 H       -14.0573492386        1.8759535213        0.3593349163
 H       -11.8448445440       -2.9965949894       -0.9507131911
 H       -12.0663114213       -3.8874737760        0.4345812933
 H        -9.4358704665       -3.1315627091       -1.1722480709
 H        -9.8370307324       -4.7277517878       -0.5418976240
 H        -7.4893255650       -1.9108170710        3.4937743998
 H        -8.8230925364       -1.1650098427        2.6033201286
 H        -6.9356294253        0.6479837633        1.9900702650
 H        -6.2736949155       -0.0247117064        3.5805106719
 H        -7.1098258867        4.1862071185        6.3673874084
 H        -8.0754215806        3.6293223426        5.0346700995
 H        -6.3975891627        4.0924923245        4.7511994370
 H        -9.4770071209        2.3931932220        6.2559329740
 H        -8.5978762482        1.5437579242        7.3932894367
 H        -9.7039419792        0.6355181363        6.5233264374
 H        -6.4508674497       -0.7510563961        5.2642629609
 H        -8.1712526875       -0.8704714070        6.2109008829
 H        -6.8192568516       -0.0179947207        6.9606466546
 H        -5.9359300697       -4.0422730648        2.2290101670
 H        -6.4772579377       -5.2797839403        1.0998505223
 H        -7.5335159387       -4.9175359656        2.5334621116
 H        -7.4800854515       -4.5576171823       -0.7654380972
 H        -6.0111834514       -3.6318023546       -0.5391742123
 H        -7.4309813430       -2.8744816901       -1.1934976611
 H       -11.9982319336       -1.9560019203        3.0584437426
 H       -13.5866576812       -2.8418264396        2.8263134318
 H       -13.6481179512       -1.1370022061        3.1322352685
 H       -14.9661104635       -1.5942760155        1.3329432116
 H       -14.1407507485       -3.1069727819        0.7138464843
 H       -14.3213954139       -1.9442918398       -0.4812026937
 H       -11.8953083318        3.6834654588       -3.4537249357
 H       -10.4267444225        4.4871148415       -3.4384261809
 H       -11.8503513977        5.0069362871       -2.4848459020
 H        -9.7841950656        1.0864783118       -2.0515766644
 H        -9.3383833591        2.1390086728       -3.2321193375
 H       -10.8652555201        1.5841556022       -3.2127337132
 H        -8.0252116925       10.6860171474        0.1934237742
 H        -6.7642687956        9.9488598952       -0.6767986224
 H        -7.0453244454        9.4777654584        0.9998169400
 H        -9.3206956799        8.4567886925        1.7549759649
 H       -10.2107306054        7.4657299456        0.8871584307
 H       -10.3008776255        9.3573939160        0.6847409954
 H       -10.4493420936       10.3677165748       -6.1950678490
 H       -11.0796559707       11.6482980347       -7.1927365300
 H       -12.0976162374       11.1222252209       -5.9649989945
 H        -8.3741502146       12.8384752740       -5.6819352501
 H        -9.4691090143       14.3015532214       -5.7221035589
 H        -9.4324851812       12.9869846279       -7.0259530996
 Na      -10.3053467003        1.5205351717        1.3008980880
