117

 C       -11.1915148157       14.4942846888       -3.9584390676
 C       -11.5764951289       13.1527234874       -4.6726624881
 O       -12.7724348325       12.7502453059       -4.7451529008
 C       -10.3354105648       12.3292991749       -5.2931727321
 C        -9.6477117266       11.7879612959       -4.0396905863
 O        -9.0036442929       12.5294062657       -3.3657919610
 C        -9.9105175517       10.3268245356       -3.4730006204
 C        -9.1660153797        9.9792552915       -2.1387455665
 C        -9.0443768641        8.6292885553       -1.7446608373
 O        -9.1596104682        7.7748695495       -2.5551577021
 C        -8.3986999924        8.3629591018       -0.2239773699
 C        -7.5224072446        7.0911401292       -0.3081279969
 O        -6.3485066506        7.0965452138       -0.5295687983
 C        -8.1541941363        5.5854895501        0.0088932812
 C        -8.8498296022        4.9421573914       -1.1451341281
 C        -9.6129793790        3.7105576217       -0.7569797869
 O        -9.1731340723        2.9602677827        0.1074454670
 C       -10.8250030331        3.2064272184       -1.6900672543
 C       -11.8225932014        2.7025217311       -0.6649233965
 O       -12.0461889700        3.3577547415        0.3217138341
 C       -12.6793276561        1.4708716677       -1.0520695771
 C       -13.7710750669        1.0148719937       -0.0709134942
 C       -13.1338114109        0.2661764323        1.1223414081
 O       -12.5938861806        0.8172994950        2.0589191210
 C       -12.9642884963       -1.3415997010        1.2170742248
 C       -11.5140958977       -1.7188529320        0.6307453254
 O       -10.4358205245       -1.0883926320        0.8040977106
 C       -11.4173682463       -3.1263688588       -0.0718664296
 C        -9.9713863545       -3.5546388458       -0.3458383626
 C        -9.0601177024       -3.5844239753        0.9511885561
 O        -9.6162775794       -3.6976235934        2.0338261067
 C        -7.4593756488       -3.3869121192        0.8487636120
 C        -7.2475951702       -1.8080272541        1.3486232307
 O        -6.8257559788       -1.0236902562        0.4823537616
 C        -7.7652372085       -1.2823796083        2.6847353393
 C        -7.2293421453        0.0615704740        3.0927769129
 C        -8.1778711593        0.9813640353        4.0262717141
 O        -9.0852059525        1.5636266668        3.4735023231
 C        -7.7732026327        1.1205335171        5.5363807159
 C        -6.5946368200        2.2905588226        5.7381290263
 O        -5.5431940056        1.7846810759        6.0702866360
 C        -6.9508746785        3.8247140559        5.7376387194
 C        -8.9349079423        1.6116496999        6.3277908031
 C        -7.1843410701       -0.2190176071        6.0241178552
 C        -6.9164563134       -4.6160982379        1.8647784238
 C        -6.8579197949       -3.5043811677       -0.5850020191
 C       -13.0849678304       -1.7364609207        2.6884126252
 C       -14.1998484147       -2.0535650748        0.3916203574
 C       -11.4869642186        4.3153801454       -2.4505571385
 C       -10.1658721371        2.1177373175       -2.4770616798
 C        -7.5130493125        9.4578855556        0.0605856463
 C        -9.5845610562        8.4140947292        0.6903617101
 C       -10.9974284932       11.2419140460       -6.1886100209
 C        -9.2553660264       13.0143938383       -6.0672657455
 H       -11.1643085610       14.2390410804       -2.9826004028
 H       -11.9543688616       15.2101560701       -3.9718959425
 H       -10.1845326891       14.7435903345       -4.1159403266
 H        -9.3297090045        9.5786010888       -4.1582155158
 H       -11.0029743333        9.9673923683       -3.5872657796
 H        -9.3930737783       10.6675852246       -1.2639624791
 H        -8.1327488084       10.2554724907       -2.3535261271
 H        -8.8832709475        5.8871161067        0.7442126116
 H        -7.4224758046        4.7929929027        0.3757624822
 H        -8.1839554843        4.7848006130       -1.9757870287
 H        -9.6384761529        5.6932672937       -1.5671634223
 H       -11.9159451071        0.6423998088       -1.3570713135
 H       -13.3066122495        1.6025335209       -2.0577550469
 H       -14.5063505912        0.2978828114       -0.4900816204
 H       -14.3585910689        1.7927587700        0.3043794626
 H       -12.1170730159       -3.2371464401       -0.9185034733
 H       -11.8140629125       -3.8074566123        0.5996286405
 H        -9.4480273084       -3.2144784587       -1.2227851569
 H       -10.0595974787       -4.6419486314       -0.5021584073
 H        -7.6693497734       -2.0735968375        3.4731464924
 H        -8.8446022252       -1.1207203520        2.4365836470
 H        -7.2771715846        0.5362627669        2.1500762603
 H        -6.1999436160        0.0759912766        3.5514772474
 H        -6.5277914120        4.3292881291        6.6463012390
 H        -7.9463062231        4.1458701833        5.6903652688
 H        -6.3979314674        4.2433441853        4.9050741361
 H        -9.3846994027        2.5238928210        6.0249590554
 H        -8.6395437480        1.7870452591        7.3822580986
 H        -9.6819831461        0.8255295852        6.4166990114
 H        -6.2887460303       -0.2760691743        5.4540224391
 H        -7.9328707797       -1.0356426667        5.8650928421
 H        -6.9847154127       -0.1957524733        7.1022393579
 H        -6.1353071458       -4.1284565187        2.3821627314
 H        -6.5642637177       -5.4722420661        1.3457680416
 H        -7.7097932465       -4.9066483899        2.6099465747
 H        -6.8911275996       -4.5496765927       -1.0194268164
 H        -5.8412358427       -3.2038586069       -0.5103117569
 H        -7.3959269312       -2.9241593200       -1.2806466600
 H       -12.0585400089       -2.1356888105        2.8869630785
 H       -13.8815511105       -2.3612848258        2.9127900422
 H       -13.2955765397       -0.8544729592        3.3684595657
 H       -14.8866622064       -2.0817702774        1.3114578930
 H       -14.2248390247       -3.0256868226       -0.2487954261
 H       -14.4794555658       -1.3890269160       -0.4559806478
 H       -12.0670261516        4.1165949594       -3.2668723537
 H       -10.7091794058        4.9371659153       -2.8531686304
 H       -12.1361402350        4.9579196733       -1.8337874776
 H        -9.6801170299        1.3335812925       -1.9486186080
 H        -9.3293931895        2.5722286619       -3.1311643120
 H       -10.7920577049        1.5343155103       -3.1849559417
 H        -7.9484068165       10.3988977132       -0.2295423163
 H        -6.6020957583        9.4878789111       -0.5379352343
 H        -7.2852804595        9.4798877384        1.0882164275
 H        -9.2382192976        8.2960851700        1.7789010184
 H       -10.2054119160        7.6292196746        0.6826590747
 H        -9.9496422236        9.3990927425        0.6401344893
 H       -10.3179192699       10.3718160359       -6.1310280628
 H       -11.0852340090       11.4454316998       -7.2754411229
 H       -12.0149209925       11.1253781455       -5.9113563373
 H        -8.4634745147       12.2509748303       -6.2351085454
 H        -8.9663994897       13.8488053389       -5.5471186195
 H        -9.5850124972       13.2227361289       -7.0844515905
 Na      -10.3984292564        1.6238513005        1.5467847867
