117

 C       -11.1786248401       14.4112171751       -4.1159556721
 C       -11.5465213405       13.1119164599       -4.9309546800
 O       -12.7065448030       12.7824390233       -4.9255638502
 C       -10.3573538796       12.1470551562       -5.3811123588
 C        -9.6601444581       11.7702817700       -4.0412228652
 O        -8.9585121553       12.5407369703       -3.4489560489
 C        -9.7050295561       10.2794640936       -3.5653022503
 C        -9.0280502317       10.1910090888       -2.1413873526
 C        -8.9476452618        8.6398559677       -1.8369166222
 O        -9.5055362064        7.6835416342       -2.4248525676
 C        -8.2849019959        8.2376637597       -0.3773468285
 C        -7.4715194857        6.8848036998       -0.3854916286
 O        -6.2787539723        7.0452367703       -0.6128571293
 C        -8.0269712552        5.4876557771       -0.0596211965
 C        -8.9236447934        4.9273032644       -1.1903843904
 C        -9.6443314536        3.6813717198       -0.7599122076
 O        -9.1928621102        2.9301809374        0.1074224453
 C       -10.8596959278        3.3384329317       -1.6186181849
 C       -11.9792192624        2.7381766056       -0.5082422107
 O       -12.0052363647        3.3931864270        0.5256426096
 C       -12.6285091639        1.3600153116       -0.8114495192
 C       -13.8164544456        1.0298398605        0.0798763633
 C       -13.1410062957        0.1456198027        1.1977205421
 O       -12.4821296288        0.8012155206        1.9802578225
 C       -13.0514981906       -1.3342029499        1.2153208560
 C       -11.5815236622       -1.6882169139        0.6434194510
 O       -10.7487211976       -0.8395087835        0.6654482944
 C       -11.3911512955       -3.1460591117       -0.0436583022
 C       -10.0188113182       -3.4870710348       -0.3334912540
 C        -9.1236283526       -3.6298263627        0.8945233726
 O        -9.6274746008       -3.6712685415        1.9411252271
 C        -7.5462124469       -3.3489792706        0.8322997077
 C        -7.4086948069       -1.8675335768        1.3099597055
 O        -6.9286123740       -1.0527417533        0.5120948133
 C        -7.8630638602       -1.3862527872        2.7315858662
 C        -7.3203932734        0.0985677858        3.0768024387
 C        -8.1244503726        1.0553555265        4.0160743277
 O        -9.1035798170        1.6915676285        3.6559454078
 C        -7.7290349235        1.2260817501        5.5298065880
 C        -6.5167952577        2.2852593073        5.8711693157
 O        -5.3810525665        1.8880096313        5.9424414069
 C        -6.7732307737        3.7338189139        5.9699683280
 C        -9.0762719170        1.7467026832        6.2188711646
 C        -7.2221115843       -0.1367458571        6.1001881923
 C        -6.9648941322       -4.3460404829        1.7783982381
 C        -6.7420920339       -3.5044587708       -0.4822118960
 C       -12.9834605359       -1.7496261961        2.7496083424
 C       -14.0677739888       -2.0473301493        0.1420224895
 C       -11.6910095044        4.4684826449       -2.2367634874
 C       -10.1969703257        2.2770534346       -2.5699296877
 C        -7.2088976831        9.3331318535        0.0942901090
 C        -9.5233584355        8.2063806789        0.6836733211
 C       -10.9770390038       10.9877370974       -6.2236303255
 C        -9.2266391147       12.9549806935       -6.2480755702
 H       -10.9836287425       14.0825674182       -3.0903435033
 H       -12.1552195447       14.9535950560       -4.0162673781
 H       -10.2614509361       14.8058827192       -4.4120842939
 H        -9.4140805110        9.3848191215       -4.2323576789
 H       -10.7350384738       10.0579819627       -3.4232100613
 H        -9.7839814279       10.6452786512       -1.3694298685
 H        -8.1642785153       10.8975383458       -2.0255925020
 H        -8.5516926577        5.6474896250        0.9596865920
 H        -7.1829281323        4.7410507659        0.0073536504
 H        -8.3004802019        4.7344148059       -2.1994684083
 H        -9.6476669710        5.6700948319       -1.5168678210
 H       -11.8005286050        0.5941522140       -0.8951629849
 H       -13.0726595678        1.3895148276       -1.8774764359
 H       -14.6840649040        0.5520271568       -0.4585843702
 H       -14.2352246159        1.8855687727        0.6564555911
 H       -11.8951570853       -3.0965772423       -0.9873692213
 H       -11.9329688123       -3.9217041168        0.4951326105
 H        -9.5323925484       -2.6779587741       -0.8542814606
 H        -9.9434131122       -4.2896521093       -1.0936554810
 H        -7.4097636232       -2.0218359148        3.4996151830
 H        -9.0260474506       -1.6031304833        2.6942577637
 H        -7.1593383726        0.5595885248        2.1410534812
 H        -6.3792309555       -0.0545820678        3.6586812685
 H        -6.0598620328        3.9851081966        6.7320529413
 H        -7.6699090216        4.2629408508        6.2032244166
 H        -6.3228302723        4.1618144037        5.0877252370
 H        -9.5698552343        2.5916220806        5.7790026116
 H        -8.8848901518        2.0654274055        7.3001027264
 H        -9.7848525820        0.9227849600        6.3385633420
 H        -6.1961616072       -0.0467739919        5.9758667781
 H        -7.6856768348       -0.9442845002        5.7031781104
 H        -7.4603386667       -0.1744040759        7.1570119586
 H        -6.0801037911       -3.8653061137        2.2372224569
 H        -6.8546283008       -5.2524131610        1.2771331185
 H        -7.6723958770       -4.4870658411        2.6031713691
 H        -6.5354955485       -4.4446461389       -0.9048587534
 H        -5.7844268516       -2.9816076664       -0.2617483758
 H        -7.3562975183       -2.9250236731       -1.2439498601
 H       -12.1123491985       -2.3998775837        2.6834655725
 H       -13.9359620964       -2.0728467465        3.1670678265
 H       -12.6988700537       -0.9259903999        3.4069402918
 H       -14.9534072912       -2.4348291197        0.6973181085
 H       -13.6707662160       -2.9288623249       -0.2619497917
 H       -14.1273838801       -1.5101059257       -0.8214557203
 H       -12.5591458427        4.0937738462       -2.8446460430
 H       -11.3049341472        5.2318745447       -2.8644298591
 H       -12.1945878449        4.9602522588       -1.4342571519
 H        -9.6380003117        1.3403425673       -2.1817175369
 H        -9.4543179402        2.7342090380       -3.2689021007
 H       -10.9458523813        1.7082891169       -3.2845672014
 H        -7.6165416497       10.3568000848       -0.0291359889
 H        -6.3288218794        9.4405779935       -0.3910896511
 H        -7.1107095044        9.1392549558        1.2310824987
 H        -9.2311208131        7.8637424442        1.6337114897
 H       -10.3366585285        7.4863268689        0.5235333231
 H        -9.8236960790        9.2201831295        0.8595270197
 H       -10.1420237000       10.2844419134       -6.4188206880
 H       -11.2610189155       11.2998329990       -7.2294352679
 H       -11.9855050067       10.6846023130       -5.8461826597
 H        -8.8348781532       12.3836949866       -7.0640390807
 H        -8.5539282743       13.3022883267       -5.4719189883
 H        -9.6649081762       13.7792027358       -6.6954254545
 Na      -10.4719972080        1.6037284824        1.8328062300
