117

 C       -11.1831303844       14.2930036997       -4.6230295815
 C       -11.4758466631       12.8953180535       -5.3013492933
 O       -12.5876372924       12.6266322706       -5.7296016335
 C       -10.2683920504       11.8434882993       -5.5927915039
 C        -9.3842134053       11.6734194049       -4.1585284109
 O        -8.7681054058       12.4840171832       -3.5802141777
 C        -9.3275427981       10.0825341186       -3.6325330185
 C        -8.5272207867        9.8596178233       -2.3307443967
 C        -8.8966883972        8.5166305984       -1.6916688014
 O        -9.9118627070        7.8871710843       -1.9573444242
 C        -8.0139338105        7.9844939036       -0.4677626253
 C        -7.1824300543        6.7524002710       -0.7293653555
 O        -6.0467090628        6.8135983261       -1.1810296511
 C        -7.6759758476        5.3324960279       -0.4055686289
 C        -8.8809371702        4.9388410598       -1.2227894173
 C        -9.7690161567        3.7516624781       -0.6305985614
 O        -9.4395620802        3.2130182934        0.4086697547
 C       -11.2441298110        3.4221607286       -1.3640048461
 C       -12.1275503049        2.6627385000       -0.3823383080
 O       -11.9612422346        2.8327057570        0.8006671300
 C       -13.0456242003        1.5553919736       -0.7469362169
 C       -13.8933542420        1.0376375491        0.4080838503
 C       -13.1774851759        0.1512811731        1.4854968600
 O       -12.7385743133        0.4806466397        2.5665871530
 C       -13.0957177773       -1.4270588693        1.1112909065
 C       -11.7444126167       -1.5335343208        0.4211646778
 O       -10.9904891535       -0.5501548520        0.3981431545
 C       -11.2578753093       -2.8106089723       -0.3879841964
 C        -9.7212648070       -2.8419442389       -0.3800449994
 C        -9.1734887870       -3.3608680171        1.0385693215
 O        -9.7307678531       -3.9647948703        1.8820733619
 C        -7.6293669591       -3.0749269166        1.1203922389
 C        -7.5645262780       -1.5030240734        1.4112616481
 O        -7.2029939454       -0.6823344645        0.5463677131
 C        -7.9337465090       -0.9334897069        2.8539836603
 C        -7.1253967355        0.2693965100        3.3286708660
 C        -8.0408049300        1.1858863945        4.1861140199
 O        -8.9636733924        1.8139254947        3.7446004323
 C        -7.7540523712        1.3120900880        5.6818105806
 C        -6.4518226610        2.0964182613        5.7368245816
 O        -5.3891759556        1.7305470380        5.2822326913
 C        -6.4842701300        3.5763541283        6.3852407497
 C        -8.9087463656        2.0540186098        6.3725903161
 C        -7.3839956282       -0.1417390138        6.3294694897
 C        -6.9480735469       -3.9558501590        2.1579002266
 C        -6.8715938347       -3.3260370196       -0.2465064222
 C       -12.9626650097       -2.2712101221        2.4355866036
 C       -14.4183646024       -1.8269087376        0.2878761949
 C       -11.9783256504        4.8549462228       -1.5560446448
 C       -11.0380599840        2.6164014298       -2.6040680011
 C        -7.0585081488        9.1732332186        0.0574489139
 C        -8.9984637150        7.7085560205        0.8248302503
 C       -10.8250495537       10.5373427278       -6.2375097528
 C        -9.3119103427       12.5913372527       -6.7140280918
 H       -10.3958031019       14.1694520620       -3.9800039894
 H       -12.0327521716       14.4124184011       -3.9465796519
 H       -10.8738281921       15.0411052446       -5.2532385953
 H        -9.0833549769        9.4179826421       -4.5724761392
 H       -10.2584529177        9.5574928450       -3.4074140146
 H        -8.9779777580       10.6867834676       -1.7814617033
 H        -7.5043278464       10.0475759145       -2.4046814040
 H        -7.7222318031        5.0616830081        0.6280687929
 H        -6.7783361428        4.7467442991       -0.6552306316
 H        -8.6801251802        4.4388358800       -2.1771081028
 H        -9.3801266316        5.9153323872       -1.3632122427
 H       -12.4850868022        0.7342094606       -1.2423290686
 H       -13.8505219767        1.9576406235       -1.4771160122
 H       -14.8149183348        0.5763522754        0.0568444038
 H       -14.2651764526        1.8104793587        0.9973362742
 H       -11.6511632605       -2.7839994441       -1.4485040211
 H       -11.6178519482       -3.7222836834        0.0533409984
 H        -9.2702312441       -2.0138797017       -0.8931676000
 H        -9.3680638673       -3.7097674879       -0.9763195005
 H        -7.7155761655       -1.6629943315        3.6032703630
 H        -9.0342166545       -0.8321147357        2.8840833159
 H        -6.7246967268        0.7950301793        2.4848828303
 H        -6.2299767578       -0.1042328795        3.9623746707
 H        -5.5007644608        4.1313160686        6.4387896717
 H        -6.9061196578        3.5727509425        7.3741165113
 H        -7.2069444076        4.1709347864        5.7927583090
 H        -9.0586039878        3.0075522993        5.9794911951
 H        -8.7725232100        2.1060650054        7.4886928788
 H        -9.8301424522        1.5224977483        6.2105104211
 H        -6.2888717330       -0.2903818156        6.1684015083
 H        -8.0438467089       -0.8955927812        5.8184314714
 H        -7.6299676121       -0.2792977073        7.4755986488
 H        -5.8952588615       -3.8750483452        1.9956392695
 H        -7.4560802000       -4.8623478573        2.0543646441
 H        -6.9877833525       -3.5486960838        3.2205572438
 H        -7.2695460422       -4.2775236036       -0.5888591113
 H        -5.8357578923       -3.5510366418       -0.1583130907
 H        -7.0606731221       -2.5864414067       -1.0149366345
 H       -13.1209502808       -3.3132609837        2.1385432133
 H       -13.5930659087       -1.8177237743        3.1439808752
 H       -11.9055615773       -2.4239308122        2.7251931056
 H       -14.9382626867       -0.8032113204        0.2843612887
 H       -15.1333810256       -2.5291504368        0.7597277475
 H       -14.1026801696       -2.0447122606       -0.8046892811
 H       -13.0208381778        4.8515986863       -1.7969289875
 H       -11.5665054918        5.4584850621       -2.3579191901
 H       -11.7761987322        5.4797942666       -0.6722342323
 H       -10.6945466842        1.6569439606       -2.2827904233
 H       -10.3590614886        2.9718024621       -3.3081345143
 H       -11.9317117318        2.4222963303       -3.1696911874
 H        -7.7018571002       10.0015126113        0.4282691343
 H        -6.5054235817        9.6331414169       -0.6607489844
 H        -6.4788942285        8.9448061580        0.9494517695
 H        -8.3246549244        7.5592730251        1.7193656822
 H        -9.6396890499        6.8137380053        0.7959780215
 H        -9.7035316738        8.5335296666        1.0906822078
 H       -10.0432653309       10.0716450199       -6.8033294100
 H       -11.4844380962       10.8305700944       -7.0191674532
 H       -11.4050025201        9.9951134417       -5.5338125991
 H       -10.0917056802       13.2281105511       -7.2664350339
 H        -8.8615451025       11.8413782695       -7.3849910970
 H        -8.6232502035       13.3079715475       -6.2756741335
 Na      -10.3635692563        1.5921565716        1.7462485043
