117

 C       -10.9483137458       13.7825302174       -4.9577325427
 C       -11.2269328100       12.5018990223       -5.6000251190
 O       -12.3386794338       12.2992673208       -6.0920296140
 C       -10.0448491491       11.4188226292       -5.6662928232
 C        -9.3182106804       11.1462551814       -4.2997991777
 O        -8.7871098714       11.9921554137       -3.6589079643
 C        -9.2821195306        9.7927485197       -3.7466127525
 C        -8.2644985756        9.4139678637       -2.5996547117
 C        -8.7683155515        8.4750216227       -1.6802905188
 O        -9.8397632157        7.9770109513       -1.6632926600
 C        -7.7779743762        7.9979448242       -0.5294763772
 C        -7.1394401056        6.7341553468       -1.2193722591
 O        -6.3133307934        7.0058419227       -2.0498963945
 C        -7.7420931871        5.3009284640       -0.9069939993
 C        -9.1307501309        4.9597311638       -1.5279190782
 C        -9.8553041672        3.9782044197       -0.5351988418
 O        -9.2574875204        3.3636313240        0.3474402505
 C       -11.4142219625        3.7049700664       -0.9471461077
 C       -12.2078169094        2.8401694643        0.1855906360
 O       -11.8562607781        2.9918085921        1.3072524666
 C       -13.5191144140        1.9984782577       -0.2402237736
 C       -14.3561869979        1.1661473083        0.8463272802
 C       -13.4825228812        0.0951005269        1.6184260825
 O       -13.0824582017        0.2926592897        2.7148607982
 C       -13.0557133942       -1.3417886022        1.0267368395
 C       -11.7345768990       -1.2256353899        0.2364777759
 O       -11.0105840807       -0.1941675666        0.3279672775
 C       -11.2637733668       -2.6231947618       -0.4156674175
 C        -9.6470026509       -2.6481856185       -0.4611742071
 C        -9.1180185738       -3.1789886118        0.8108015684
 O        -9.8605576900       -3.6315156077        1.6359590374
 C        -7.6328223697       -2.7704447236        1.1422026810
 C        -7.7066012666       -1.2755224620        1.4550651304
 O        -7.2884623195       -0.5515883014        0.5535939557
 C        -8.2217801386       -0.7949207661        2.8296721596
 C        -7.4379377683        0.4333799431        3.2447803421
 C        -8.2481738864        1.2306343927        4.2545441702
 O        -9.2674699239        1.7131441323        3.7917792666
 C        -7.6752771805        1.4234269928        5.7674168419
 C        -6.3045149023        2.2247876155        5.6980019158
 O        -5.5054312531        1.7093736111        4.9533148580
 C        -5.9765521786        3.3602142041        6.7458401554
 C        -8.7622711946        2.2038734081        6.5098313870
 C        -7.4944304099       -0.0306599271        6.4546951891
 C        -7.1424193418       -3.4130890001        2.5360962353
 C        -6.6674710384       -3.2379043442        0.1100345031
 C       -12.8747318818       -2.2514679572        2.2613688350
 C       -14.1551542060       -2.0931201472        0.2344248451
 C       -12.3477411353        4.9558221296       -0.9045759984
 C       -11.5241992743        3.1356031077       -2.3755407155
 C        -6.6431850535        8.9880539811       -0.0369829390
 C        -8.6724754800        7.6017865026        0.6794944310
 C       -10.6897585788       10.1489166364       -6.2588654594
 C        -8.9714982592       11.9565384167       -6.6013876928
 H        -9.8521111307       14.0687546115       -4.7605428957
 H       -11.5751981990       13.5942428137       -3.9273282028
 H       -11.5465622308       14.5540370652       -5.5651709736
 H        -9.2718150599        8.9503343456       -4.3729739271
 H       -10.2996286825        9.5371306467       -3.3746524161
 H        -7.8866422287       10.1944550000       -1.9332922271
 H        -7.4299894991        9.0034107620       -3.2006518931
 H        -7.5447894505        5.1689790749        0.1516681592
 H        -7.1030309064        4.4056059356       -1.1777441381
 H        -8.8252425031        4.4842811381       -2.3530433532
 H        -9.8544874943        5.7885266725       -1.7569233262
 H       -13.1261973562        1.3564450353       -0.9463824818
 H       -14.1542180650        2.6816854057       -0.7183348674
 H       -15.2579207888        0.5579025061        0.4611854379
 H       -14.8224527206        1.8620850139        1.5546462361
 H       -11.6307495212       -2.7458429987       -1.4756728475
 H       -11.5211711243       -3.4607539534        0.2303425020
 H        -9.0760171788       -1.7457125733       -0.7964094524
 H        -9.4197437731       -3.3486818969       -1.2554207555
 H        -8.1455572832       -1.6359416318        3.5744806338
 H        -9.2229708969       -0.4706090361        2.9160886490
 H        -7.3165073483        1.1332469762        2.4025876010
 H        -6.3747943371        0.3402255237        3.5568510556
 H        -5.5153886988        4.1410695028        6.0681046073
 H        -5.1867014524        3.0179132083        7.3481263073
 H        -6.7161465393        3.8304605034        7.3553737034
 H        -9.1287063253        3.1038433585        6.0168612566
 H        -8.3590240287        2.4289961300        7.5215101055
 H        -9.6575603743        1.5588307908        6.6452568869
 H        -6.9602025553       -0.6446055877        5.8209745903
 H        -8.4439825718       -0.5265767588        6.5759697377
 H        -6.8893633458        0.0644353035        7.3435110303
 H        -6.6198367805       -2.6668237403        3.0904009934
 H        -6.5671469184       -4.2666955167        2.2402072796
 H        -8.0534716004       -3.7553236553        3.1885244150
 H        -6.6627055884       -4.3843153739        0.0229282882
 H        -5.6458534409       -3.0224871414        0.4181448903
 H        -6.8084736894       -2.7127326781       -0.8125530348
 H       -12.3866018918       -3.2310597299        2.1240338035
 H       -13.8761032092       -2.2680448614        2.4699181196
 H       -12.2594649959       -1.7367840670        3.0863481578
 H       -14.8297949838       -2.6978755167        0.8251235072
 H       -13.6411129388       -2.7622916050       -0.2698444871
 H       -14.7575537784       -1.4204656990       -0.2736275586
 H       -13.2632623553        4.6597353622       -1.3411254308
 H       -12.0314114643        5.9372487699       -1.3262441415
 H       -12.5266103807        5.3056955855        0.1622598904
 H       -10.8093741397        2.4221924103       -2.7441393129
 H       -11.5164827341        3.9591423899       -3.1082378736
 H       -12.5537994441        2.7579896007       -2.5600413541
 H        -7.0660102338        9.9907353161        0.3610648470
 H        -5.7165347670        9.0903122156       -0.5816238424
 H        -6.3335467585        8.6069782500        0.9721729679
 H        -7.9887012541        7.0824424457        1.4456876673
 H        -9.5839512158        7.1588961062        0.4436660035
 H        -9.0406983734        8.5106738630        1.1546834442
 H        -9.8871073217        9.3531624159       -6.3807602297
 H       -11.0635167888       10.3627712461       -7.3149199263
 H       -11.4961545680        9.8385420894       -5.6006204403
 H        -8.4141675080       12.8407939712       -6.1564975561
 H        -9.4496843451       12.2607604136       -7.4712222132
 H        -8.2581996389       11.1570960614       -6.7076278919
 Na      -10.1510263866        1.2904205820        1.7474490930
