117

 C       -10.7695082807       13.7490756007       -4.9621226484
 C       -11.2088804759       12.3694710511       -5.5500063151
 O       -12.1653568913       12.0943120869       -6.1835342544
 C        -9.9688961729       11.1882587542       -5.6732380537
 C        -9.3588289949       11.0243416738       -4.2926607648
 O        -8.8211475965       11.8756845935       -3.6358477368
 C        -9.3878079802        9.5423926341       -3.7864231234
 C        -8.2404643689        9.4100848251       -2.7245301331
 C        -8.7442050772        8.5304943447       -1.5521771167
 O        -9.8874527141        8.0494265159       -1.6401197107
 C        -7.7195328336        7.9159448207       -0.5087064959
 C        -7.1357191603        6.7057350684       -1.3697980966
 O        -6.3961888453        6.8460474885       -2.3713918787
 C        -7.6857084232        5.2746575949       -0.9879112265
 C        -9.1964480649        5.0217376319       -1.3977408283
 C       -10.0801047422        4.0089042774       -0.5959139682
 O        -9.4595512712        3.3000302643        0.1897186354
 C       -11.6227069332        3.7823144936       -0.7578123469
 C       -12.2263752762        2.7753564158        0.3577524624
 O       -11.8314338070        2.8798589233        1.5183606440
 C       -13.4516329366        2.0909655918       -0.0887432978
 C       -14.1756613853        1.0940185381        0.7461431990
 C       -13.3560020551        0.0954847045        1.6116187795
 O       -13.1691568812        0.4559588455        2.7911492374
 C       -13.0279120578       -1.4241687344        1.1443587270
 C       -11.6343982463       -1.2891666046        0.3413197853
 O       -11.0910880542       -0.1842676382        0.1883618723
 C       -11.0933645771       -2.4959707654       -0.4683693424
 C        -9.5866900755       -2.6239135257       -0.6567369523
 C        -9.2035795695       -3.1254265181        0.7661266819
 O        -9.9504896885       -3.5034153506        1.6123028154
 C        -7.6428416780       -2.8107427611        1.1884034911
 C        -7.6953280937       -1.2780269021        1.3763954696
 O        -7.3425097210       -0.3958510766        0.5831623214
 C        -8.3167695503       -0.7857894183        2.7620811164
 C        -7.6061256618        0.4810672854        3.2273064625
 C        -8.3103191344        1.3143873987        4.3310541613
 O        -9.4271335670        1.7618163550        4.1733762829
 C        -7.7437411065        1.5058116697        5.7141776359
 C        -6.2737836276        2.0963398046        5.6908553010
 O        -5.4242097017        1.7835047000        4.8935352505
 C        -5.9330675966        3.1387663754        6.7486906672
 C        -8.8000452772        2.4307927679        6.4795512154
 C        -7.4379779246        0.1596556683        6.3144321963
 C        -7.1918054795       -3.5193917162        2.6261987702
 C        -6.5996131140       -3.2149149846        0.1580384652
 C       -12.7922281224       -2.2575210339        2.3767241700
 C       -14.1526276024       -1.8242116204        0.0565452378
 C       -12.3661242287        5.1884158569       -0.6268585484
 C       -11.7202354310        3.1442847401       -2.1629981836
 C        -6.6161021247        8.9201012204       -0.1650084852
 C        -8.5607078795        7.5106921937        0.6907771704
 C       -10.5599654998        9.9791004827       -6.3686079777
 C        -8.8732514154       11.7275871023       -6.7655570138
 H        -9.6571901474       13.9073096473       -5.0850960737
 H       -10.9631535552       13.6154492410       -3.8716605987
 H       -11.4189442343       14.5461419997       -5.3484615846
 H        -9.3095798943        8.6617586925       -4.5703261685
 H       -10.2908963999        9.1798431024       -3.3591944392
 H        -8.0861615051       10.4190949981       -2.3067446521
 H        -7.3906432099        9.1444446716       -3.2233568534
 H        -7.5665786641        5.1886509317        0.0932568088
 H        -6.9973139006        4.4591496628       -1.2014090215
 H        -9.1613685116        4.8113317475       -2.4957478822
 H        -9.7363943129        5.9186020169       -1.2374004949
 H       -13.0889849671        1.6269558839       -0.9683069569
 H       -14.1744962834        2.8488876177       -0.3489571797
 H       -15.0811156362        0.6435221192        0.2335905515
 H       -14.6321445587        1.6898040358        1.4814341551
 H       -11.4982600130       -2.2094162519       -1.5084242472
 H       -11.4203660981       -3.4797183320       -0.1386859159
 H        -9.0112029308       -1.7322090446       -0.8385228638
 H        -9.4600105009       -3.2220207366       -1.5905321342
 H        -8.2873699014       -1.4697194466        3.5494713002
 H        -9.3781625004       -0.5635293103        2.7026275375
 H        -7.3685547715        1.2110994165        2.4690770500
 H        -6.5163690453        0.2187663536        3.5097211437
 H        -5.8674796012        4.1107189916        6.2517300175
 H        -5.0045114075        2.9132974008        7.2793847650
 H        -6.6962080287        3.2455449600        7.5710228121
 H        -8.8545285919        3.4158304251        6.0750843389
 H        -8.4755944642        2.4531279956        7.5671362902
 H        -9.7989183477        2.0114489061        6.4367991259
 H        -6.8484888070       -0.4068413393        5.5649744234
 H        -8.2932779968       -0.4889500853        6.4140457143
 H        -6.7705508407        0.2935595947        7.2031146728
 H        -6.5454887765       -2.6890970195        3.1146495118
 H        -6.5167208491       -4.3105871595        2.3056724943
 H        -7.9614400307       -3.8616141246        3.3543815896
 H        -6.4237839119       -4.2431012395        0.1585699303
 H        -5.6082437792       -2.7330352133        0.2482833202
 H        -6.9782699747       -2.8477091297       -0.8289477920
 H       -12.2051255326       -3.1450358528        2.0388397920
 H       -13.7510836368       -2.5552800481        2.7937264764
 H       -12.1362792500       -1.7270749092        3.0630406835
 H       -14.8273555579       -2.5996349638        0.3506659633
 H       -13.6367881997       -2.2577788361       -0.8405684341
 H       -14.8167339515       -0.9421246771       -0.0350247953
 H       -13.4712018651        5.1742732738       -0.9198083298
 H       -11.8648052549        5.8923489548       -1.3139511749
 H       -12.2259901268        5.7552017964        0.2966191815
 H       -10.8766797159        2.5195474974       -2.3571598901
 H       -11.7212172443        3.8650868215       -2.8668832137
 H       -12.6022380164        2.6019449572       -2.3143150092
 H        -7.1283147770        9.8070013345        0.2435236062
 H        -5.9299238992        9.0883127903       -0.9400296608
 H        -5.9264288752        8.6641627251        0.7023768982
 H        -8.0159162183        6.8510440703        1.2960133688
 H        -9.6362430384        7.2341635778        0.4217843724
 H        -8.7912703215        8.4306895949        1.3163223190
 H        -9.7315625157        9.3240323921       -6.7053652934
 H       -11.0756521724       10.3746330794       -7.2277365602
 H       -11.2278542046        9.3716817999       -5.7188552694
 H        -8.0540257029       12.1240510812       -6.1460274835
 H        -9.2559961445       12.6036672764       -7.3779668424
 H        -8.4741641663       10.8882398466       -7.3049050484
 Na      -10.0790959560        1.4974098941        1.8193031813
