117

 C       -10.6385991830       13.5042271928       -4.9959870337
 C       -10.9180810033       12.2112835313       -5.7946972578
 O       -12.0670059857       12.0458168997       -6.1190025737
 C        -9.9428942615       11.0746906781       -5.8606519381
 C        -9.3537914928       10.8268525168       -4.4439543413
 O        -8.9485815626       11.8279773507       -3.7425031405
 C        -9.2932279389        9.4267397175       -3.8263832372
 C        -8.2039654579        9.3827145108       -2.7167443760
 C        -8.7772929187        8.4073491277       -1.5994172189
 O        -9.9841358512        8.1330820132       -1.4626011918
 C        -7.7402200909        7.8131793628       -0.5832619362
 C        -7.2838665892        6.5954248992       -1.4505477682
 O        -6.5965724705        6.6763184218       -2.4311776635
 C        -7.8313164222        5.1486571431       -1.0912022182
 C        -9.3313975933        5.1531924835       -1.2383766180
 C       -10.0316260238        4.0207477867       -0.4449566189
 O        -9.5129588381        3.1224731595        0.1556530711
 C       -11.5950231742        3.9643358935       -0.6835267414
 C       -12.2381807380        2.9714038892        0.4897114864
 O       -11.8841722493        2.7435993637        1.6211078120
 C       -13.3976149642        2.0746189234       -0.0915703826
 C       -14.1932152776        1.1881009958        0.8816495087
 C       -13.3837638459        0.1725098840        1.7285989211
 O       -13.0380979196        0.4186677266        2.8563870515
 C       -12.9491269515       -1.2814332550        1.0806965499
 C       -11.6336887399       -1.1911227099        0.1798879872
 O       -11.0133612785       -0.1659522182        0.2347877119
 C       -11.2099504069       -2.3479064762       -0.7125371716
 C        -9.6451659650       -2.6220615557       -0.5218007386
 C        -9.0250924255       -2.9663544472        0.8846221531
 O        -9.9416888941       -3.4697101420        1.5971518852
 C        -7.5254823182       -2.8078422501        1.2860660301
 C        -7.6902249489       -1.1755742696        1.5125986612
 O        -7.4263926163       -0.4760144640        0.6108221583
 C        -8.4019631035       -0.6378232175        2.7402947425
 C        -7.7164900891        0.6153326845        3.2533232835
 C        -8.4737863621        1.3800988058        4.3250756536
 O        -9.6372426695        1.7379737309        4.0709309802
 C        -7.7160636115        1.5777105643        5.7023420872
 C        -6.2570162451        2.2101177088        5.6414050211
 O        -5.4586127608        1.8069189471        4.8156513463
 C        -5.7774255736        3.0861555236        6.8040147695
 C        -8.6385232843        2.4527492241        6.5693668079
 C        -7.4825879828        0.2062523484        6.3747040583
 C        -7.3135948369       -3.6098188901        2.5110061601
 C        -6.5733431251       -3.1098200335        0.0776747078
 C       -12.7872281865       -2.2906828402        2.3515007009
 C       -13.9791107734       -1.7595297891        0.0513212674
 C       -12.2921625947        5.2826638524       -0.4531333998
 C       -11.8683018198        3.3425251975       -2.0976314493
 C        -6.5956647764        8.8157416388       -0.3749631393
 C        -8.3555544698        7.4414511081        0.7732026789
 C       -10.5558033049        9.7958414717       -6.4287677783
 C        -8.7628225974       11.7002380089       -6.7445464119
 H        -9.7313206358       13.8880711691       -5.3512942074
 H       -10.5724925582       13.3648283794       -4.0086830759
 H       -11.5038014810       14.1429856222       -5.1932344303
 H        -9.1289116472        8.5967784057       -4.5680471926
 H       -10.2639382310        9.0541240945       -3.4060822303
 H        -8.0997631931       10.4373946993       -2.4615009509
 H        -7.3208648894        9.0943379291       -3.2599276581
 H        -7.6861315573        4.6566731587       -0.0892690561
 H        -7.3066846522        4.4704308885       -1.6683958938
 H        -9.5521553611        4.8375741207       -2.3568403890
 H        -9.8152044582        6.0762571142       -1.0576739717
 H       -12.8946075954        1.4244775098       -0.9153726546
 H       -14.2572801243        2.6544547272       -0.5419827116
 H       -14.9231633684        0.6902892566        0.3005713894
 H       -14.7597584328        1.8203405305        1.5861829768
 H       -11.3505855412       -2.0000533640       -1.7220870081
 H       -11.7824380043       -3.2705376822       -0.4596286810
 H        -9.1349517728       -1.7466013273       -0.8906759750
 H        -9.4132783443       -3.3837455460       -1.2922025072
 H        -8.6147696332       -1.2521183960        3.5801651052
 H        -9.4347919758       -0.4294967125        2.3472239146
 H        -7.4588920350        1.4050995802        2.5206319734
 H        -6.7125962494        0.3400771073        3.5223109638
 H        -6.0234891135        4.1236419086        6.8530355634
 H        -4.7186053097        2.8613999278        7.1414304485
 H        -6.3205598047        2.5604530445        7.6342364617
 H        -8.5101799780        3.5263319627        6.2825278507
 H        -8.5182402421        2.3082508144        7.6078034587
 H        -9.6515620342        2.1967560857        6.2932885799
 H        -6.8198438601       -0.5606926755        5.8170744994
 H        -8.4759006988       -0.3081569374        6.2881394059
 H        -7.0895723169        0.3862884669        7.3813626041
 H        -6.4689494646       -3.1390425102        3.1216111680
 H        -7.0894887150       -4.6932670202        2.2562353509
 H        -8.1886075567       -3.5347673855        3.0841970537
 H        -6.3610995863       -4.1500178027        0.0625185486
 H        -5.6211963700       -2.5751738156        0.0781303526
 H        -7.0361594250       -2.8142002339       -0.8647301166
 H       -12.3186725163       -3.1648342573        1.8532437908
 H       -13.7937609920       -2.6454028042        2.7808154809
 H       -12.1294885831       -1.8751323775        3.0647980697
 H       -14.2487764584       -2.7240283074        0.5563001738
 H       -13.6123223979       -2.1259250014       -1.0042939737
 H       -14.9473512051       -1.2332779270        0.2037000010
 H       -13.4201368190        5.1914336641       -0.4284673273
 H       -12.0513969264        5.9528953318       -1.2755787395
 H       -11.9615258875        5.8759750237        0.3621266084
 H       -11.3612586964        2.4053914786       -2.0473625354
 H       -11.3003836492        3.9623844934       -2.8565686275
 H       -12.9111867275        3.2202883810       -2.3271010818
 H        -7.0119547369        9.5979922842        0.1587818696
 H        -6.0244271735        9.0523702176       -1.3219777609
 H        -5.7534962104        8.4369213601        0.1796317071
 H        -7.6689658359        6.7755124480        1.2490451212
 H        -9.4260700759        7.1016724370        0.6536674523
 H        -8.4969506439        8.3005503240        1.4504078297
 H        -9.7803494560        9.0869319028       -6.6453009030
 H       -11.2366810683       10.0049903296       -7.2099820419
 H       -11.0683785804        9.2975101538       -5.5746735266
 H        -7.9113170382       11.8269285365       -6.1128587951
 H        -8.9900068274       12.7492233204       -7.1387466292
 H        -8.4821576776       10.9380287767       -7.5285219578
 Na      -10.0598091303        1.7311186840        1.8717314334
