117

 C       -10.4880828848       13.4109178705       -5.6508681511
 C       -10.8270508651       11.9231525081       -5.9814960880
 O       -11.9733049882       11.6332499784       -6.2290998947
 C        -9.6622535523       10.7416441930       -6.1293515958
 C        -9.1353244486       10.3627138299       -4.6690138389
 O        -8.6795283034       11.2941862192       -4.0072544364
 C        -9.4116645930        9.0859000356       -3.9411834776
 C        -8.4652534117        9.0208372844       -2.6431145196
 C        -8.7567438181        8.2543614678       -1.4379850761
 O        -9.8913097271        8.2118253353       -0.9040391778
 C        -7.4890782921        7.5681413653       -0.7782440578
 C        -7.3965041256        6.1898849984       -1.6611907475
 O        -6.9136364419        6.4355032080       -2.7549459929
 C        -8.0618806887        4.9050923899       -1.0684952612
 C        -9.5264457905        5.1831334323       -0.8794606434
 C       -10.3038033939        3.9625122266       -0.4699647116
 O        -9.7889419989        3.0954547542        0.1615081287
 C       -11.9078812451        4.0145443684       -0.4577784075
 C       -12.5891787014        2.9540385744        0.4936948384
 O       -12.3038808832        3.1911579948        1.6590181025
 C       -13.6291517255        1.9571287464        0.0389900167
 C       -14.1657213386        1.2454249123        1.2787027297
 C       -13.0959420853        0.2899470304        1.8651139970
 O       -12.4013134129        0.3831498901        2.9031449948
 C       -12.8885651531       -0.9862473861        1.0741201857
 C       -11.4597128944       -0.9025623168        0.3250395911
 O       -10.7540318578       -0.0283817078        0.6786960227
 C       -11.0955579698       -1.9471064907       -0.8436838274
 C        -9.6217773716       -2.2966217115       -0.7106070886
 C        -9.2688628000       -2.8794860223        0.8256837818
 O       -10.0779972467       -3.4503994862        1.4656289357
 C        -7.7669944300       -2.6612015547        1.3465172667
 C        -7.6516565350       -1.0938973626        1.6280439039
 O        -7.4444008747       -0.2959330803        0.7772558880
 C        -8.2254666558       -0.6007265643        3.0262202276
 C        -7.7006751718        0.7712732267        3.3156323816
 C        -8.4377332668        1.5259245554        4.3548657212
 O        -9.4793830241        2.1104683836        4.1704097831
 C        -7.7931938739        1.6013886225        5.8073300870
 C        -6.2446223487        2.1761387318        5.6585986539
 O        -5.8274540337        2.2652868336        4.5070148499
 C        -5.4287021168        2.7065464401        6.8429355146
 C        -8.6366203941        2.6669645822        6.5489635821
 C        -7.9204299243        0.2238540603        6.4564032019
 C        -7.2474875530       -3.4355521726        2.4719112323
 C        -6.8642536060       -2.9299708250        0.0633869652
 C       -12.4908956993       -2.3249134556        2.1086913219
 C       -13.9513259543       -1.3021332742       -0.0079324553
 C       -12.1579721436        5.2654818341        0.2822856564
 C       -12.3673049891        3.9752127511       -1.9371976399
 C        -6.1198427773        8.3397227578       -0.8810152510
 C        -7.8182568563        7.3730576218        0.6924214769
 C       -10.3752954176        9.6013023497       -6.8427580668
 C        -8.4621522534       11.2491480718       -6.9233806777
 H        -9.3713337686       13.7039977866       -5.5295795399
 H       -10.9398133356       13.3720569817       -4.6425037750
 H       -11.3337667833       14.1093383617       -6.0161922798
 H        -8.8150502162        8.2729619492       -4.5712767170
 H       -10.3860939164        8.6973291493       -3.8622125101
 H        -8.2859993863       10.0823819075       -2.5545721637
 H        -7.5915366533        8.7007046982       -3.0570904599
 H        -7.5567052454        4.6416364580       -0.0981644003
 H        -7.9742001803        3.9851319562       -1.6616768382
 H        -9.9350980512        5.5526307682       -1.8774190671
 H        -9.7734761561        5.8668067801       -0.1405091565
 H       -13.2255021248        1.2662817822       -0.6176714840
 H       -14.3726111839        2.4856078732       -0.4799047103
 H       -15.1383071138        0.7641717441        1.0305700266
 H       -14.4053424963        1.9940919851        2.0259749837
 H       -11.3046674253       -1.3230150077       -1.7557609171
 H       -11.7410259185       -2.8084662695       -0.6693371294
 H        -9.1077588838       -1.4444419186       -1.0853067719
 H        -9.3134501706       -3.1791575254       -1.3516855431
 H        -8.2457071440       -1.3153350217        3.7755754858
 H        -9.3106000657       -0.5084732698        2.8339221799
 H        -7.8189415207        1.1664776937        2.3029951956
 H        -6.5786538598        0.8342105105        3.4512723870
 H        -5.9224904892        2.7422629708        7.7453265473
 H        -5.0332195222        3.6817488146        6.5256457210
 H        -4.4483465162        2.1923954197        6.9208875926
 H        -8.6237033741        3.5625289492        5.9104120262
 H        -8.1812113743        2.9098241297        7.5331592981
 H        -9.6512450764        2.2754980539        6.7075445877
 H        -7.5664703385       -0.5935677175        5.8501173617
 H        -8.8982470779       -0.0404120389        6.6590901727
 H        -7.3421042243        0.2753181441        7.3397144880
 H        -6.4081541604       -4.0945820494        2.0838409549
 H        -7.9693343715       -4.1982224384        2.7936874105
 H        -7.1143809277       -2.8211789451        3.3204228217
 H        -7.0942471239       -3.7801997953       -0.4986649296
 H        -5.7961691071       -2.9624372287        0.3968900652
 H        -6.8892875759       -2.0361932238       -0.6432384176
 H       -12.6154763293       -3.2556801189        1.5669351230
 H       -13.1413361005       -2.4352871495        3.0106794325
 H       -11.5961413244       -2.0162902142        2.5083876197
 H       -13.6446606489       -1.2259920733       -0.9795640025
 H       -14.7722656890       -0.6008047119        0.1208635646
 H       -14.2911647707       -2.3136429814        0.0228281431
 H       -13.2750138958        5.4863651804        0.4570019378
 H       -11.6871278109        6.1750639701       -0.0449256710
 H       -11.8749375617        5.1063705252        1.2936049255
 H       -12.9537069858        3.1202521696       -2.0958612772
 H       -11.4902084549        3.9445179966       -2.5690896369
 H       -12.9421491708        4.8222507639       -2.1440299242
 H        -6.2365705124        9.3696419742       -0.8120180010
 H        -5.6430027614        7.9914430281       -1.8533466315
 H        -5.3437256283        7.8382658041       -0.2401966057
 H        -7.2202720822        6.6520245128        1.1155859624
 H        -8.9512671385        7.1703124572        0.8779515744
 H        -7.4201276063        8.2913329744        1.1679546032
 H        -9.9099422878        8.6241158313       -6.7725013159
 H       -10.5819528061       10.0685772685       -7.7738200870
 H       -11.3979243629        9.3622697438       -6.4339758478
 H        -7.8469109889       11.6607283215       -6.2081860364
 H        -8.7893840119       12.1731404090       -7.4706216098
 H        -8.0524273963       10.5714103873       -7.6355614425
 Na      -10.4365736908        1.8022124699        2.0311498229
