117

 C       -10.3278306400       13.2266007815       -5.7942885229
 C       -10.7956258264       11.8174510168       -6.0468060070
 O       -11.9487366076       11.4656161691       -6.2605104810
 C        -9.6653344447       10.7070195190       -6.2202985591
 C        -9.2337054823       10.3174864199       -4.7522268699
 O        -8.5405414166       11.2450925242       -4.2031045101
 C        -9.4919790033        8.9986591192       -3.9079974053
 C        -8.3827204395        9.0151308075       -2.7683161338
 C        -8.6196775654        8.2250083469       -1.4567149903
 O        -9.6569446342        8.1647967620       -0.8346366325
 C        -7.3332014544        7.5109182919       -0.8028315747
 C        -7.3632028494        6.2297986524       -1.6687181850
 O        -7.0644438512        6.1440619945       -2.7936731872
 C        -8.0404872350        4.9035440188       -1.1339685687
 C        -9.6130804047        5.0484539692       -1.0241111280
 C       -10.4042797571        3.9248734871       -0.3083458274
 O        -9.8785911414        2.9675256498        0.2138623461
 C       -12.0430677177        4.1872917351       -0.3185198234
 C       -12.6299365552        3.1024368186        0.5666294949
 O       -12.3689071212        3.0679564953        1.7272311291
 C       -13.7365712740        2.0325754065        0.1936255671
 C       -14.0677827129        1.2307287451        1.4944213863
 C       -13.0085866511        0.2615202994        1.9811169790
 O       -12.3252677086        0.6312329117        2.8844362235
 C       -12.8220638112       -1.0364546769        1.0768931652
 C       -11.4129348371       -0.9707051374        0.3000770444
 O       -10.6198775702       -0.1384750717        0.6608725291
 C       -11.0863479055       -1.7893666488       -0.8173260434
 C        -9.5794042265       -2.2107799163       -0.6737587516
 C        -9.1294174795       -2.7833867896        0.6955657544
 O        -9.9058643609       -3.5220903913        1.2997156626
 C        -7.7416671864       -2.5478658483        1.2785162738
 C        -7.7803957896       -1.0665096516        1.6749962355
 O        -7.4240937218       -0.2380106229        0.8818098198
 C        -8.2722356715       -0.6277574661        3.0461290937
 C        -7.7457424974        0.7649561742        3.2785120085
 C        -8.4417551159        1.5605564823        4.3331339187
 O        -9.4311251712        2.2275847156        4.0283946371
 C        -7.7856030199        1.6548246050        5.7602913712
 C        -6.2561133688        2.1941330034        5.6146781739
 O        -5.7792480086        2.5692006189        4.5616751458
 C        -5.4894217233        2.4810483695        6.8745119918
 C        -8.6435139624        2.7519379865        6.5701263726
 C        -7.8489254068        0.3049589765        6.5438025980
 C        -7.3283845386       -3.4561854292        2.5242011173
 C        -6.8877975986       -2.9353022444       -0.0413510607
 C       -12.8061078222       -2.2743724015        2.0238081797
 C       -13.9114410005       -1.3051314721       -0.0065151308
 C       -12.3577760976        5.5749176088        0.3212635977
 C       -12.5922538693        4.1911135509       -1.8826451586
 C        -6.0728933188        8.3246342081       -1.0545695537
 C        -7.6639203416        7.3166431667        0.7568612421
 C       -10.3569641059        9.3956868329       -6.8591906794
 C        -8.3646485744       11.2953496121       -6.9108115198
 H        -9.2934565122       13.2580608351       -5.8229069720
 H       -10.7330774536       13.7796436198       -4.9601140842
 H       -10.9333174307       13.7258549307       -6.5600149879
 H        -9.6545196240        7.9686760907       -4.2515334737
 H       -10.4446998650        9.2122590384       -3.3425881945
 H        -8.3932310691       10.0595658254       -2.6079905662
 H        -7.3971095329        8.9460350163       -3.2562108186
 H        -7.5896999142        4.6111202340       -0.1508540893
 H        -7.8394772329        4.1587055124       -1.8600925969
 H       -10.0576991139        5.3912867224       -2.0243626123
 H        -9.8767514316        5.8559798939       -0.3470039432
 H       -13.2908832329        1.3587971966       -0.5437478101
 H       -14.6004969405        2.5090363713       -0.2626713787
 H       -14.9679079253        0.7700880987        1.4240982646
 H       -14.1751423895        1.9960826532        2.3002689568
 H       -11.2228964083       -1.1697423198       -1.7033199595
 H       -11.8139814127       -2.6554261056       -0.6572718920
 H        -9.0715543004       -1.2577935034       -0.8854234620
 H        -9.3005887677       -2.8980124730       -1.4977195071
 H        -7.8068805998       -1.3171623803        3.6999135803
 H        -9.3104132873       -0.8269650457        3.2494497313
 H        -7.7100683632        1.1780324973        2.2295950940
 H        -6.7147957949        0.6599953876        3.5238758399
 H        -5.7287337748        1.9515163775        7.7991766267
 H        -5.3252905043        3.5701008882        7.0120159349
 H        -4.4813221982        2.1903327127        6.5652909098
 H        -8.6651746662        3.7420955192        6.0243111983
 H        -8.0954674213        2.8917974956        7.4513625863
 H        -9.6233003711        2.3430005285        6.8397350561
 H        -7.4567231328       -0.5727568128        6.0052098100
 H        -8.8964632320        0.0244280432        6.8409385354
 H        -7.3016758475        0.4328797046        7.4496059835
 H        -6.8507264024       -4.3574305503        2.1311801274
 H        -8.1832508722       -3.8844587438        3.1781126678
 H        -6.7953782608       -2.8232753211        3.2090039976
 H        -7.3884865747       -3.8213859709       -0.5026458901
 H        -5.8832925775       -3.2257854796        0.2691547318
 H        -6.7846275340       -2.2191358108       -0.8360192689
 H       -13.1357100953       -3.1722732326        1.5753908382
 H       -13.5017459442       -2.1567038668        2.8603873349
 H       -11.8893002400       -2.1467442238        2.5666081464
 H       -13.9527389845       -0.5274040354       -0.8689062087
 H       -14.9172475089       -1.3528481589        0.4551907525
 H       -13.6939186181       -2.1805986849       -0.6025846054
 H       -13.4358330253        5.6974133471        0.4917488768
 H       -12.0193836668        6.3882833919       -0.3561016368
 H       -11.9751465754        5.7576471229        1.3470544072
 H       -13.1331681974        3.3368733573       -1.9339108522
 H       -11.7834932305        4.2042962923       -2.5857015498
 H       -13.1758417980        5.0499026413       -1.9787804141
 H        -6.4002945157        9.3336216755       -0.9384240698
 H        -5.6239314394        8.1738932625       -2.1120106843
 H        -5.2546537323        7.9989752573       -0.4398962158
 H        -7.1495124723        6.3556662875        1.1082147509
 H        -8.7302539989        7.2475668022        0.9112826369
 H        -7.1219572600        8.0846295479        1.2991209271
 H        -9.8062749989        8.4905781453       -6.7435212547
 H       -10.6247207393        9.7374084688       -7.8389037454
 H       -11.3292154756        9.1399247908       -6.3977222891
 H        -7.9942031150       12.0237516709       -6.2215517745
 H        -8.5712622939       11.8203990508       -7.8552039067
 H        -7.6791263969       10.4485751754       -7.1864241734
 Na      -10.6676163528        1.7645539730        2.2603483670
