117

 C       -10.2842543564       13.0935658878       -5.9673891139
 C       -10.7641815106       11.6811544880       -6.2637292151
 O       -11.9212209386       11.3998832987       -6.1985117265
 C        -9.6407173785       10.5302853619       -6.1719056470
 C        -9.2206672412       10.3730993417       -4.6518950206
 O        -8.4084501542       11.1996982267       -4.3009926027
 C        -9.5442360998        9.1965642413       -3.8117714630
 C        -8.3478484928        8.9763858496       -2.7916741726
 C        -8.5363042486        8.2742372625       -1.4732260646
 O        -9.6148770396        8.1704657503       -0.9430258537
 C        -7.2784837619        7.4588570853       -0.8919178518
 C        -7.4492412556        6.0617779758       -1.6935586333
 O        -7.0626400714        6.0380498398       -2.8471013424
 C        -8.1288114620        4.7467060031       -1.0368335907
 C        -9.6907344392        4.9781780911       -1.1036375664
 C       -10.5279933420        4.0146926211       -0.2226367744
 O       -10.0535281939        2.9729250606        0.2620106331
 C       -12.1376823484        4.2902567513       -0.2456973936
 C       -12.7425733635        3.3010672244        0.7488564852
 O       -12.2879543445        3.2180141542        1.8806467759
 C       -13.8791889243        2.1274854198        0.3358135077
 C       -14.2421941474        1.2984702449        1.5504249707
 C       -13.0589994805        0.3416844158        1.8742572297
 O       -12.3603460076        0.3980989705        2.8566899179
 C       -12.7902140484       -1.0078239429        1.1561595914
 C       -11.3529628831       -0.8719391861        0.4309783415
 O       -10.4666115538       -0.0884458183        0.8007557880
 C       -10.9645345906       -1.9084681242       -0.7922483294
 C        -9.4559691605       -2.1624489772       -0.6688780197
 C        -9.2346083772       -2.8920847559        0.5942760671
 O       -10.0084306275       -3.6513885797        1.2113330340
 C        -7.6994705198       -2.6096069706        1.0725573276
 C        -7.6807188220       -1.0765420190        1.5628936123
 O        -7.3854853025       -0.1102191448        0.8241017288
 C        -8.2177395381       -0.6649240556        3.0388467869
 C        -7.6876978619        0.7834410775        3.3043141119
 C        -8.3849095250        1.6637086524        4.4042628981
 O        -9.3825828584        2.3080970002        4.0585998327
 C        -7.7421052539        1.8506312725        5.7868121793
 C        -6.3102418454        2.3836189863        5.6485081771
 O        -5.9166316030        2.7135758068        4.5585277151
 C        -5.5232809861        2.2603952224        6.9834448621
 C        -8.5768182982        2.8266235806        6.6058395913
 C        -7.7600555901        0.4982922150        6.4611961139
 C        -7.5290888957       -3.5180166187        2.3575078003
 C        -6.6594908853       -2.8598926292        0.0234644576
 C       -12.9968159972       -2.2255670036        2.0334389539
 C       -13.9079152413       -1.2976605784        0.0578763057
 C       -12.4702178911        5.7752263416        0.2716539072
 C       -12.7407465321        4.3083788379       -1.6910896616
 C        -5.9830304062        8.2324842978       -1.2013634920
 C        -7.3773889528        7.2465023140        0.6549445333
 C       -10.1518949568        9.2426333020       -6.9312718410
 C        -8.4704002022       11.0369221259       -6.9806823479
 H        -9.2970418231       12.9825465334       -5.6946975209
 H       -10.8616617403       13.6040664153       -5.2556700832
 H       -10.5128341839       13.6546874529       -6.7530020149
 H        -9.6460297679        8.2473093088       -4.1606008504
 H       -10.5433991106        9.3833650445       -3.2515540504
 H        -7.8050622214        9.9449630535       -2.7489480091
 H        -7.5525336120        8.4813881296       -3.4835068482
 H        -7.7189927010        4.7392019078       -0.0039121540
 H        -7.9498134082        3.8155806374       -1.6473467397
 H       -10.0155192280        4.8349416695       -2.1093898727
 H       -10.0449475532        6.0713749193       -0.8672492990
 H       -13.3344136031        1.4782620310       -0.4501164572
 H       -14.7354710405        2.6874800354       -0.1984210290
 H       -15.0665396590        0.5850758647        1.4266506043
 H       -14.5427499515        2.0146858215        2.3149143682
 H       -11.1828669046       -1.4439573039       -1.7479293595
 H       -11.4237885481       -2.8979659292       -0.6016106156
 H        -8.9441121148       -1.1434516285       -0.6457452065
 H        -9.0850235865       -2.6550144786       -1.5485459524
 H        -8.0099441755       -1.4567816891        3.8340460092
 H        -9.2902192786       -0.7288229168        2.9745604034
 H        -7.8422805538        1.2067788369        2.2980383214
 H        -6.6276517359        0.7415272033        3.4062968319
 H        -5.7177811484        1.1887151987        7.4170833941
 H        -5.7303213198        3.0269871778        7.7337992333
 H        -4.4493341380        2.2805791432        6.8265825196
 H        -8.5442914652        3.8103794175        6.1974850664
 H        -7.9974312659        2.8281109635        7.5307843222
 H        -9.5549750672        2.4004807049        6.8073432991
 H        -7.1768795852       -0.2341883132        5.8711179228
 H        -8.8280571165        0.0771130075        6.5638007547
 H        -7.4124357474        0.4951720196        7.5689494582
 H        -7.7832014187       -4.5040455310        2.1091485546
 H        -8.2034209509       -3.2686015081        3.1752366647
 H        -6.5438587013       -3.2910856225        2.8668308536
 H        -6.9809996243       -3.7697554941       -0.5744673711
 H        -5.6793128569       -2.9738446480        0.4197024479
 H        -6.6239753228       -2.1173083451       -0.7313754254
 H       -13.2321018530       -3.0357291945        1.3570782115
 H       -13.8983190349       -2.1640623007        2.5661148751
 H       -12.2757416380       -2.3131619708        2.8930830755
 H       -14.4012071994       -0.3243118476       -0.2853500458
 H       -14.7309223850       -1.9673605192        0.4215375366
 H       -13.5866902614       -1.6193270329       -1.0130299021
 H       -13.4923669554        5.8387010628        0.4826627297
 H       -12.2435005608        6.5276065794       -0.5067564539
 H       -12.0292728128        6.0966520410        1.2534298214
 H       -13.2315289204        3.2741663513       -1.7441916335
 H       -11.9906500839        4.5043912681       -2.3996409335
 H       -13.4396410946        5.1787789357       -1.6253604529
 H        -6.3103844602        9.2942732224       -0.9078587837
 H        -5.6776907585        8.2911369557       -2.2269504711
 H        -5.1833615409        7.8392369423       -0.5723399853
 H        -6.8911494736        6.2449413288        0.9235802088
 H        -8.3833355531        7.1774970019        0.8834198518
 H        -6.7758018437        7.9778401638        1.1734426030
 H        -9.3964514588        8.4534238889       -6.8995622092
 H       -10.4315464262        9.5988586952       -7.9335134909
 H       -10.9907232361        8.7940507591       -6.5004045004
 H        -8.1210336160       12.0743763963       -6.6066457689
 H        -8.7822374582       11.0925097502       -8.0014861636
 H        -7.6911240133       10.2476873893       -7.0395801071
 Na      -10.7206685583        1.7582335510        2.3603451723
