117

 C       -10.2931312303       13.0476975287       -6.1094093174
 C       -10.7807785062       11.4920665228       -6.1147022573
 O       -11.9626810515       11.2738159078       -6.2322082939
 C        -9.5673728343       10.3636199737       -6.2907922110
 C        -8.9890088521       10.4073490083       -4.7072733351
 O        -8.3092297273       11.2770407258       -4.3235261878
 C        -9.5315734796        9.3861389647       -3.6217855942
 C        -8.2733657041        8.8233440720       -2.8615117184
 C        -8.5566329826        8.1645863127       -1.5806111575
 O        -9.6662389988        8.1931557143       -1.0124214186
 C        -7.2893355186        7.3518407671       -0.9856207626
 C        -7.4221348836        5.9763715275       -1.6793586152
 O        -7.0730760892        5.8568550312       -2.8932562255
 C        -8.2497094827        4.8224792526       -0.9559384064
 C        -9.7623735898        4.9369473723       -1.1860815633
 C       -10.6947672673        4.0532427811       -0.3392665978
 O       -10.2891033949        3.1709147635        0.3599587256
 C       -12.3312508740        4.3957047170       -0.2105538085
 C       -12.8355245040        3.4523468177        0.9364981745
 O       -12.3574893404        3.4989327065        2.0664439126
 C       -13.8365257223        2.4028446065        0.5491602879
 C       -14.2010429142        1.3171119862        1.5860642059
 C       -13.1933712607        0.1475274351        1.9250838836
 O       -12.5310368527        0.3207907116        2.9618926200
 C       -12.8862826120       -1.0201108691        1.0092759546
 C       -11.4123975026       -0.8779241717        0.5402122345
 O       -10.5554705515       -0.1246967293        0.9666616529
 C       -11.0177305543       -1.9164993090       -0.6524924802
 C        -9.4544675237       -2.1282335479       -0.7978212061
 C        -9.0857733726       -2.9450714206        0.4831492621
 O        -9.9326592348       -3.5958496835        1.0060978900
 C        -7.6859541215       -2.6335691601        1.1356832779
 C        -7.6991755570       -1.0404867867        1.5450370494
 O        -7.3262562434       -0.3183916990        0.6763884440
 C        -8.1226748490       -0.5556631965        2.9719789220
 C        -7.5873704632        0.8812573155        3.3120406988
 C        -8.3944856662        1.7622189623        4.3990591928
 O        -9.3980744378        2.3538570310        4.1461878654
 C        -7.7999629842        1.9001795781        5.8313796050
 C        -6.3038776457        2.3640902790        5.7036372123
 O        -5.8784582796        2.9538999397        4.7261479626
 C        -5.3635590280        2.1963759795        6.9001787352
 C        -8.6389146055        3.0070978668        6.6978488729
 C        -7.8064357541        0.4603384813        6.3698405140
 C        -7.5961802804       -3.6825784057        2.2785812325
 C        -6.5240780656       -2.7404967602        0.2251923438
 C       -12.9169868502       -2.1547224780        2.0952759105
 C       -14.0004741360       -1.1650207828       -0.2251226797
 C       -12.4180282040        5.8727616093        0.3722142953
 C       -12.9075015214        4.2346919835       -1.5484611970
 C        -5.8758255205        8.0024351354       -1.4032824154
 C        -7.2052557266        7.1901080775        0.5328869684
 C       -10.0787944327        9.0451374380       -6.8750429008
 C        -8.3772440094       10.7610978232       -7.1975753789
 H        -9.5117172506       13.1022865762       -5.3564918139
 H       -11.0961939510       13.6880606369       -5.9518033165
 H       -10.0094450674       13.3439089986       -7.1610884820
 H        -9.9276902112        8.3874750979       -3.9755764024
 H       -10.2111408963        9.6983770789       -2.8746535573
 H        -7.5165603859        9.6945484526       -2.6027361110
 H        -7.6291755931        8.3380427754       -3.5916509739
 H        -7.9816835283        4.9806375087        0.0978670421
 H        -7.9765106109        3.8015915240       -1.4567501940
 H        -9.9835185548        4.7915757280       -2.2178656060
 H       -10.1307687326        6.0229288991       -1.0188828431
 H       -13.5634612209        2.0564999929       -0.4989978319
 H       -14.6804430044        3.1776892431        0.4163070809
 H       -15.2284106441        0.8089307023        1.2610364203
 H       -14.4748970968        1.9566672256        2.4214268127
 H       -11.3369017727       -1.3390414371       -1.5248476092
 H       -11.4099733819       -2.8844121193       -0.5866415701
 H        -8.8926613155       -1.2274233236       -0.9988807752
 H        -9.5231214044       -2.6685190398       -1.7595946832
 H        -7.8959175797       -1.3384250430        3.7634666101
 H        -9.2384061037       -0.6817843956        2.9514918445
 H        -7.4044755390        1.3772364421        2.3853089832
 H        -6.5763060376        0.6412721346        3.7487364271
 H        -4.9807593910        1.1879563971        6.9939939662
 H        -5.9762025479        2.4167102770        7.7978151029
 H        -4.4845421514        2.8904680957        6.9644042492
 H        -8.4251756623        3.9304490138        6.2506126679
 H        -8.2175189674        3.0384483278        7.7445016482
 H        -9.6676945059        2.7011071260        6.6996165473
 H        -6.8472964944       -0.0555785242        6.0251472312
 H        -8.6662196268       -0.1679624513        6.0991914526
 H        -7.8608713388        0.4368564990        7.5078859479
 H        -8.2728392868       -4.4936427347        1.9975963362
 H        -7.8053206765       -3.4144439618        3.2369728829
 H        -6.5575030053       -3.9501448726        2.3955130891
 H        -6.5095508273       -3.6212845509       -0.3113585471
 H        -5.5697693891       -2.5279649526        0.6979283708
 H        -6.7196600679       -2.0076432467       -0.5898203067
 H       -12.6311844967       -3.1232685271        1.6448509250
 H       -13.9049470543       -2.4143267844        2.4924536916
 H       -12.4280370783       -1.7344048950        2.9426817316
 H       -14.6266053709       -0.3439923359       -0.4313571760
 H       -14.6291026425       -2.1060625016       -0.0216137601
 H       -13.5685811670       -1.3026380963       -1.2652404388
 H       -13.4534720966        6.1709321633        0.5894888937
 H       -12.0318210802        6.6088179291       -0.2913809640
 H       -11.9543290899        5.9267771599        1.3204275345
 H       -12.7911260312        3.1022368775       -1.7116182458
 H       -12.2007930421        4.8694154952       -2.1777329194
 H       -13.9403341607        4.7273412280       -1.5740582683
 H        -5.7695195313        9.0307730220       -1.0409948129
 H        -5.8111325047        8.0823724765       -2.5043513904
 H        -5.1272950196        7.2758103911       -0.8943471480
 H        -6.5345770496        6.4810487124        0.7871701906
 H        -8.2200609756        6.8857841062        0.8661351434
 H        -6.8295919240        8.1418806424        0.8890187216
 H        -9.1856367551        8.4123054071       -6.7252661235
 H       -10.4244484302        9.1043136260       -7.8933757343
 H       -10.7730978666        8.5265349240       -6.2366899390
 H        -7.9754911221       11.7307193255       -6.8962381024
 H        -8.5520831845       10.6293647591       -8.2889953760
 H        -7.6802780255        9.9577931517       -7.0117595568
 Na      -10.6417567344        1.7836056113        2.3676853101
