117

 C       -10.2763569875       12.3398494914       -6.9321806036
 C       -10.6163964317       10.8576196482       -6.3808039709
 O       -11.7809621530       10.4285566279       -6.2754753184
 C        -9.4700264432        9.9447010976       -6.0847988787
 C        -8.6298483404       10.6131084179       -4.8199368138
 O        -7.7853837100       11.4667025653       -4.9859396996
 C        -8.8751790454        9.9306447069       -3.3814399525
 C        -7.9836941389        8.6066698412       -3.2518280414
 C        -8.2296795648        7.9225525809       -2.0353833626
 O        -9.3189804525        8.0864066790       -1.4538207633
 C        -7.2254187548        6.9199079434       -1.5730714910
 C        -7.6648253990        5.3738145063       -1.8553786221
 O        -7.3258753602        4.8070109088       -2.8852786310
 C        -8.6318796807        4.7172117251       -0.6855259121
 C       -10.1218998550        4.8913507879       -1.0764807227
 C       -11.0781090421        4.3377761408       -0.0559085389
 O       -10.6935083882        3.4928090983        0.6923389474
 C       -12.6197599380        4.7188831497        0.2746190983
 C       -13.1845155103        3.6608869409        1.2920437379
 O       -12.8035867649        3.7302597157        2.4553076857
 C       -14.1411657470        2.5671967738        0.8731824238
 C       -14.3176935717        1.4105525714        1.9353989057
 C       -13.2079747363        0.3856802993        2.0124663031
 O       -12.3816967088        0.3802502476        2.9268111655
 C       -13.0973623014       -0.7137321879        0.9557398528
 C       -11.5054904074       -0.6233778421        0.4960282122
 O       -10.8408285653        0.0877997805        1.1627991577
 C       -10.9023662111       -1.4647400328       -0.6821388602
 C        -9.3994947874       -1.7021114695       -0.6663474742
 C        -9.0666783346       -2.6602003844        0.5026231293
 O        -9.5334718922       -3.7632140818        0.6052319658
 C        -7.7943765833       -2.3057136603        1.4431162103
 C        -7.4865838555       -0.8592311419        1.6381526257
 O        -7.3623608455       -0.1150958279        0.7102005275
 C        -7.5922198800       -0.4657349633        3.0930101891
 C        -7.2820725526        1.0429379120        3.3051228248
 C        -8.2983100810        1.6872969211        4.2685536805
 O        -9.4310168963        2.0445279806        4.0156172608
 C        -7.7236311201        1.8774237718        5.7604881700
 C        -6.1497071187        2.5782845940        5.8080761747
 O        -6.0484356079        3.6411296199        5.2205052421
 C        -5.1298515334        1.9449379623        6.7189436822
 C        -8.6561119293        2.9944486813        6.4300848016
 C        -7.6130719181        0.5127469109        6.4667352764
 C        -7.6034211643       -3.3213895424        2.5789322145
 C        -6.6653524051       -2.7096874833        0.3184230698
 C       -13.2998183402       -2.0114336601        1.6501307572
 C       -13.9845742412       -0.5517636532       -0.1689509065
 C       -12.4900563563        6.1322106006        0.8470953536
 C       -13.3171929047        4.7541577237       -1.1485077390
 C        -5.7898648084        7.0264543797       -2.1958536534
 C        -7.0431932994        7.1690852239       -0.0259938942
 C        -9.8371742302        8.3651619830       -5.9143948084
 C        -8.3414361601        9.9274847362       -7.2852781462
 H       -11.1437585652       12.8313655050       -6.7849536241
 H       -10.0420403809       12.3793511217       -7.9538758376
 H        -9.4846534040       12.8001507862       -6.3168284095
 H       -10.0256539470        9.7856376764       -3.2141888862
 H        -8.5346636000       10.6319976666       -2.6781497852
 H        -6.9084038815        8.6019619485       -3.7587461907
 H        -8.3419422392        8.0236477737       -4.1026340297
 H        -8.4268631675        5.3553238630        0.1712227478
 H        -8.3651796855        3.6162340232       -0.6917001615
 H       -10.3915386049        4.3385277290       -1.9768935456
 H       -10.2545189039        5.9519436475       -1.3717330859
 H       -13.8653905074        2.1067689592       -0.1484302805
 H       -15.1598869083        3.1284488564        0.7127474632
 H       -15.3705097511        1.1399079602        1.5894711056
 H       -14.4869389476        1.8839646495        2.9055984953
 H       -11.2072425504       -0.8454281979       -1.5621735487
 H       -11.4456386113       -2.3786256386       -0.6841463173
 H        -9.0374933617       -0.7042476480       -0.7138947159
 H        -9.1772744656       -2.3481193029       -1.5677898519
 H        -7.2470151814       -1.1237885795        3.9297190553
 H        -8.7308707146       -0.4405396125        3.1266562554
 H        -7.1934987102        1.5874069754        2.4136803877
 H        -6.3374927632        1.0185981057        3.8688613832
 H        -4.7133070493        2.7823753159        7.2474121557
 H        -4.3300763773        1.4335235990        6.1094752717
 H        -5.4297320299        1.1666124836        7.5156680869
 H        -8.6581839169        3.8175525798        5.7372655818
 H        -8.1994884663        3.2754147206        7.3819705752
 H        -9.6341669870        2.5741909697        6.5349965978
 H        -7.0697935481       -0.3374235887        5.8750377209
 H        -8.5687067887        0.1512796781        6.8841362439
 H        -7.0701276138        0.5094691549        7.4290254273
 H        -8.5219538735       -4.0353130961        2.6487573290
 H        -7.4778373805       -2.8746796812        3.5411504365
 H        -6.7780341538       -3.9213117817        2.3705704819
 H        -6.9319672630       -3.6271104482       -0.0459870815
 H        -5.6580285030       -2.8213974631        0.7305211374
 H        -6.6759528380       -2.0541577292       -0.5893888864
 H       -13.1731091475       -2.9755407614        1.1023654368
 H       -14.3334308540       -2.0330564331        2.1112124837
 H       -12.6791249261       -2.0309507930        2.5238789718
 H       -14.9984309058       -0.4953581652        0.2803913598
 H       -13.8392569209       -1.3047954539       -1.0029354644
 H       -14.0850522403        0.2948384893       -0.8375398082
 H       -13.4899012389        6.6314613977        1.1396884229
 H       -12.0525058051        6.8098371753        0.1071148502
 H       -11.8329503829        6.0690766516        1.6948973485
 H       -12.5515062512        4.4114058242       -1.8360029019
 H       -13.5507758583        5.9005192590       -1.3320501069
 H       -14.2239720448        4.1513853247       -1.0190305234
 H        -5.4651156317        7.9871380558       -2.2714439793
 H        -5.9243043699        6.5938834363       -3.2331624942
 H        -5.1879946282        6.6405008277       -1.3758016509
 H        -6.5702060809        6.3164836485        0.3255694560
 H        -8.0335677997        7.4518433597        0.4510581361
 H        -6.4430755724        8.0742201834        0.0010626582
 H        -8.9536282278        7.7379014117       -5.7255340808
 H       -10.0675555219        8.0193468811       -6.8991237328
 H       -10.6677944349        8.1009255112       -5.2324988961
 H        -7.5618401939       10.5975480577       -7.0399104569
 H        -8.9213442828       10.2233211006       -8.2447425330
 H        -7.7875514226        8.9994619568       -7.4508078638
 Na      -10.9716706656        1.9924809938        2.3772029931
