117

 C       -10.4139433372       11.8638227182       -7.4262516736
 C       -10.5364818754       10.5131678712       -6.6652209790
 O       -11.6495807673       10.2944487315       -6.1986872944
 C        -9.2079657090        9.5942542642       -6.1549185708
 C        -8.3987012602       10.3942268402       -5.1302707699
 O        -7.9471015598       11.4450215717       -5.4507423943
 C        -8.2949539132        9.9201010010       -3.6951041034
 C        -7.4185793761        8.7593089066       -3.2175378274
 C        -8.0182278495        7.6493239208       -2.1974284903
 O        -9.1958095323        7.7776764986       -1.8612582255
 C        -7.0964703767        6.4729081021       -1.7549813611
 C        -7.9817963929        5.1846310252       -1.8099625059
 O        -7.8123528810        4.4520499063       -2.8205328678
 C        -8.8982352767        4.8010540429       -0.6184418663
 C       -10.3400263377        5.2445127834       -0.8053189689
 C       -11.1388092461        4.4472652569        0.2018544948
 O       -10.7824133289        3.4820687029        0.8095869388
 C       -12.6644444478        4.8406438261        0.5243326555
 C       -13.2083879825        3.7270359518        1.5729017767
 O       -12.7839774657        3.6061460206        2.7100160534
 C       -14.3955244047        2.7110462257        0.9594409326
 C       -14.6740055591        1.4489021392        1.8198079228
 C       -13.3959467383        0.6198013953        2.0101597270
 O       -12.8431909271        0.6074131237        3.0720719196
 C       -13.0041583836       -0.4858009963        0.7781707035
 C       -11.4925000228       -0.3331199876        0.3579737508
 O       -10.7779573631        0.5411954977        0.8573399597
 C       -10.8961751728       -1.4592341727       -0.5582463938
 C        -9.3925690627       -1.6141218429       -0.6941208889
 C        -9.0439756603       -2.5966856023        0.4525139493
 O        -9.8124515201       -3.4160066428        0.7953560714
 C        -7.7025879139       -2.3151749246        1.2817538753
 C        -7.3460806951       -0.7972260785        1.5841311611
 O        -7.1820759680        0.0139358072        0.7489594400
 C        -7.2175428992       -0.4387779482        3.0988888881
 C        -7.3074893574        1.1547649338        3.3814759489
 C        -8.2039157913        1.7443282047        4.4572834973
 O        -9.3120978580        2.1120769813        4.1780574934
 C        -7.6496683649        1.9857694582        5.9322595744
 C        -6.3197702839        2.6971606826        5.7434944339
 O        -6.2547614763        3.8437735526        5.2871119454
 C        -5.0737486453        2.0715616611        6.2492282515
 C        -8.6047818700        2.9667263142        6.7178931258
 C        -7.7153700380        0.6127724710        6.6105740006
 C        -7.7089424139       -3.2939651533        2.5042852119
 C        -6.5415141907       -2.6380599804        0.2857924619
 C       -13.2548349303       -1.9024670760        1.5411366683
 C       -14.0922135298       -0.2934052785       -0.3577006416
 C       -12.6034999825        6.2210835122        1.3845310794
 C       -13.3867294819        5.1417293240       -0.7510952090
 C        -5.7793402959        6.1680983758       -2.5287944874
 C        -6.5793639569        6.8822649889       -0.2421492399
 C        -9.6644009893        8.2237728137       -5.7710552031
 C        -8.4204868019        9.2313998516       -7.4737778557
 H       -10.9074440638       11.8785886350       -8.3725546042
 H        -9.3888490349       12.1668948845       -7.6570910869
 H       -10.9140003541       12.6346132982       -6.7059072819
 H        -9.3398449386        9.5708384333       -3.4333161035
 H        -8.1547846690       10.7999854728       -3.1025500637
 H        -6.3247818482        9.0804102913       -2.9691680323
 H        -7.1982458324        8.1217257880       -4.1548307730
 H        -8.4290418234        5.1495915248        0.2417289946
 H        -9.0034542379        3.6925835563       -0.5997803491
 H       -10.6658433869        4.9892268353       -1.7719256121
 H       -10.5761105639        6.3780369975       -0.6044674395
 H       -13.8265585357        2.3475501008        0.1610813139
 H       -15.2454361467        3.2599487330        0.6750730193
 H       -15.5134005783        0.8887999853        1.4331463113
 H       -15.0022013883        1.9047740426        2.6338377113
 H       -11.3772857395       -1.2790000096       -1.5671496312
 H       -11.2543292375       -2.4980995046       -0.3404277521
 H        -8.9382763049       -0.6267516528       -0.5960406657
 H        -9.2935560425       -2.0284487196       -1.6934658802
 H        -6.3685233195       -0.9626003058        3.5729859089
 H        -8.0567605252       -0.7824160076        3.5714785262
 H        -7.7268975768        1.4841115453        2.4036153068
 H        -6.2766629722        1.5761804745        3.5154162551
 H        -5.4523700585        1.6185236508        7.1204698385
 H        -4.2420251919        2.6962298503        6.3745154696
 H        -4.6555552649        1.2426664540        5.6273851425
 H        -8.3681183873        3.9629448110        6.4517406935
 H        -8.3501608573        2.6546096389        7.7775288330
 H        -9.6430062785        2.7565425102        6.4476790189
 H        -6.8347140141       -0.0020210251        6.6860474533
 H        -8.3718818334        0.0367984026        6.0755838191
 H        -8.0442771716        0.6545867804        7.6196304543
 H        -7.9920372938       -4.3819466498        2.2048855509
 H        -8.2954758592       -2.9586255377        3.3440836546
 H        -6.6567541102       -3.4688044185        2.7076137464
 H        -6.6129385732       -3.6189749812       -0.0845153397
 H        -5.5441155327       -2.5484516627        0.7786674738
 H        -6.5361478074       -1.8971704683       -0.5793489376
 H       -13.3343087034       -2.7994726281        0.8870345914
 H       -14.0528234846       -1.8433515272        2.2688514925
 H       -12.3403404451       -2.2019719565        1.9656110190
 H       -15.1657978430       -0.2220724564       -0.2380848614
 H       -14.0284810437       -1.1779625682       -1.1064853471
 H       -13.7239552702        0.5592598990       -0.9849335254
 H       -13.6582462969        6.5488604825        1.5124186529
 H       -12.0265560170        7.0047097049        0.9281860834
 H       -12.1423891719        6.0507190502        2.3184187583
 H       -13.7311512789        4.2879764978       -1.1505458714
 H       -12.5846890188        5.5623855141       -1.3735322731
 H       -14.1262905409        5.8081552545       -0.5201007495
 H        -5.0722446876        6.7753529100       -2.1242015171
 H        -6.0061748521        6.2708008452       -3.6065328670
 H        -5.5348588004        5.1089834425       -2.2645766500
 H        -5.9437547890        6.1104342478       -0.1507290518
 H        -7.3089971785        7.0606737467        0.6341948092
 H        -6.0588732078        7.8667741413       -0.3620501419
 H        -9.1735190238        7.5297544453       -6.4586157438
 H       -10.7279066623        7.9586348415       -5.9459398142
 H        -9.5049814124        7.9886437728       -4.7290933063
 H        -8.1232924944       10.0518291246       -8.1067255787
 H        -8.8644386785        8.4262567931       -8.1068874842
 H        -7.5265049017        8.9180247898       -7.0309327073
 Na      -11.0381414023        2.1768817817        2.9237018465
