117

 C       -10.0688027742       10.5543687319       -7.9507251567
 C       -10.2630495197        9.5999717696       -6.7699600971
 O       -11.2645134092        9.7000334472       -6.0229059325
 C        -9.0802415726        8.6491583011       -6.3837904000
 C        -8.0542918497        9.6946768679       -5.7031396537
 O        -7.3474121682       10.4731053514       -6.2586755866
 C        -7.7170632858        9.4846533469       -4.0502114313
 C        -6.8852712971        8.2384543438       -3.7267897390
 C        -7.8379615506        7.3047544156       -2.8746758657
 O        -8.8693612022        7.7377689551       -2.4314686128
 C        -7.2220213859        5.8029915570       -2.5079282027
 C        -8.4477862117        5.0939842857       -1.7919913797
 O        -9.1439294413        4.3054766629       -2.5062294919
 C        -8.9176364402        5.4482887178       -0.3210256102
 C       -10.4035070780        5.2181701550       -0.2983883544
 C       -11.0319426596        4.8181320695        0.9978240703
 O       -10.4824890564        3.9480744145        1.6743306852
 C       -12.5189572990        5.2430108647        1.2555209920
 C       -13.2745035737        3.9595990510        1.6501716915
 O       -13.1576885426        3.6448293853        2.8405271442
 C       -13.8195734220        2.9919402965        0.5694981052
 C       -14.6254851886        1.8821204418        1.3859602322
 C       -13.6520110347        0.8269029578        1.7369869080
 O       -13.0678221313        0.8456885665        2.8022142344
 C       -13.2309174962       -0.3252179620        0.6846074361
 C       -11.6206628333       -0.1568848459        0.4694347195
 O       -10.9994885824        0.6670652066        1.1642045011
 C       -11.0761735362       -0.8900287933       -0.7779078081
 C        -9.6498164158       -1.4004403468       -0.7858850316
 C        -9.2154503417       -1.6642074800        0.6811712593
 O        -9.9874987750       -1.7072570864        1.6106850634
 C        -7.6552939114       -1.8299820672        1.1051958787
 C        -7.2780860905       -0.4453225957        1.7929814014
 O        -6.3866094645        0.2109850421        1.3498830557
 C        -8.1107445984       -0.0251494523        3.0986136335
 C        -7.9792065624        1.4868554780        3.4111173996
 C        -8.4333927967        1.7711555452        4.8980176384
 O        -9.5863310344        2.0465335429        5.0669358579
 C        -7.4610164888        1.9839712772        6.1220780028
 C        -6.3035971712        2.9892786933        5.5937396126
 O        -6.5874443928        4.0490653150        5.0312856061
 C        -4.8935878492        2.5564727441        5.7209743744
 C        -8.2653297673        2.7294655167        7.3394755246
 C        -7.1350839444        0.6371425522        6.7042172144
 C        -7.6336907454       -2.9843123674        2.0649624582
 C        -6.7894501452       -2.3110724968       -0.0268425154
 C       -13.6284513386       -1.5955043407        1.4519919225
 C       -14.0475994944       -0.1650363905       -0.5874457710
 C       -12.4201972088        6.1859758700        2.6223521506
 C       -13.2409116701        5.9237058120        0.2150514340
 C        -6.5268318129        5.0152889722       -3.5816365531
 C        -6.1322881375        6.1107259094       -1.2967221743
 C        -9.4860564402        7.3854700762       -5.5535699859
 C        -8.4169679809        8.0326228348       -7.6683578616
 H        -9.4141746293       10.2157423095       -8.7172434144
 H        -9.5355444770       11.5015617638       -7.6546640502
 H       -11.1009106297       10.7903508991       -8.1567216437
 H        -8.6488183279        9.6047852028       -3.4872276652
 H        -7.2182406720       10.4314453730       -3.8123782069
 H        -6.1307485495        8.3527971397       -3.0147934023
 H        -6.6473409780        7.6676512181       -4.6120878409
 H        -8.6116532413        6.3728310813        0.1143215755
 H        -8.3020066242        4.8070513907        0.4005544587
 H       -10.5465516138        4.4942174223       -1.1005423903
 H       -10.9657283365        6.1929658880       -0.5422064666
 H       -12.9114514262        2.5809774246       -0.0372555341
 H       -14.5170078065        3.5739124026       -0.1356739948
 H       -15.3827495357        1.5298448668        0.5789501839
 H       -15.0566060606        2.3950338835        2.2451338620
 H       -11.3036398066       -0.2904161797       -1.6261240670
 H       -11.7667418894       -1.7201740648       -0.9960217181
 H        -9.0672081847       -0.5927242810       -1.3480979032
 H        -9.4911314938       -2.3213971489       -1.3569278074
 H        -7.9391259123       -0.5912645286        4.1070252136
 H        -9.1832823789       -0.2262679580        2.9591357347
 H        -8.6090359040        1.9150748365        2.6479319690
 H        -7.0376239562        1.8921213973        3.1656587886
 H        -4.3630052111        2.5896879080        4.8043382149
 H        -4.7253083188        1.6468769616        6.3027204967
 H        -4.2664386359        3.3851449122        6.2588502270
 H        -8.1071120078        3.7635223892        7.2987088349
 H        -7.7904087717        2.2916970346        8.2511909359
 H        -9.2618180128        2.3426083174        7.3460426250
 H        -7.9036515250        0.1903122852        7.4430584694
 H        -6.2238103562        0.6922886238        7.3240131481
 H        -6.9677273233       -0.2221596045        5.9840617326
 H        -8.2804650422       -3.8116342706        1.5904316050
 H        -8.1157838731       -2.7819945488        2.9541522771
 H        -6.6658278829       -3.2985034626        2.3386377575
 H        -7.1466686811       -3.2519853971       -0.3293494617
 H        -5.7431812170       -2.5164955483        0.2736260462
 H        -6.7217087931       -1.6026607046       -0.9184064442
 H       -13.9034279680       -2.4383697467        0.7428637949
 H       -14.4605832413       -1.4579759974        2.1615309296
 H       -12.7791919179       -2.0688043093        1.8944655586
 H       -14.9309328027       -0.8744715085       -0.4606149784
 H       -13.4249940972       -0.4977984786       -1.4272697430
 H       -14.3161148654        0.8418186454       -0.7682195804
 H       -13.4058511163        6.6001472867        2.9861887702
 H       -11.7039470542        7.0247180952        2.4894589023
 H       -12.0446143191        5.5560846818        3.4107679196
 H       -13.3679308678        5.4474086015       -0.7929527269
 H       -12.8424739907        7.0350233410        0.1483098465
 H       -14.3002152459        6.0708400959        0.6182821821
 H        -5.5998995934        5.4111789123       -3.7529846094
 H        -7.2161872534        4.9735382469       -4.5086167308
 H        -6.5725748466        3.9306107281       -3.2019406762
 H        -5.5337703789        5.2999461373       -1.2245114680
 H        -6.5400814666        6.3409390730       -0.2922161734
 H        -5.4437199663        6.7865581882       -1.8005011794
 H        -8.8486232320        6.6077167989       -5.9597157284
 H       -10.5682780302        7.1395963437       -5.5220908835
 H        -9.1216967635        7.4577728011       -4.5514639038
 H        -8.2526882572        8.6877139560       -8.5407961069
 H        -8.8940209827        7.0379176943       -7.9514861301
 H        -7.4575149953        7.6414637809       -7.3350404779
 Na      -11.1311121302        2.2918205014        3.0843769556
