117

 C        -9.9201733354       10.3188653191       -8.2175520127
 C       -10.0658340987        9.3422151771       -7.0769137290
 O       -11.0360345251        9.4789183570       -6.3552032379
 C        -9.0330190418        8.1689616700       -6.9068258746
 C        -7.7904423631        8.8782670734       -6.1248855135
 O        -6.9470674623        9.4988876336       -6.7511460287
 C        -7.8002527396        9.0290508717       -4.4025098255
 C        -6.7895224381        8.0429961679       -3.9016860993
 C        -7.4981916554        7.2402644951       -2.6096700606
 O        -8.0998624327        7.7830569100       -1.7538509228
 C        -7.3969721536        5.5765483918       -2.5740202694
 C        -8.4687175315        4.8122920204       -1.7984046422
 O        -8.9385809222        3.7572007639       -2.1875433065
 C        -8.8828384710        5.3466853540       -0.2573662346
 C       -10.3904629375        5.4215228161       -0.1313644513
 C       -10.9515693266        5.2081423399        1.2673781961
 O       -10.3523119173        4.3680575921        1.9462966939
 C       -12.3638805167        5.5555289608        1.8605778936
 C       -13.0724667077        4.1957700050        2.1153910341
 O       -13.0162951953        3.6593624894        3.2249454739
 C       -13.7896603191        3.5117997169        0.9738205447
 C       -14.7225128973        2.1679169883        1.3724187323
 C       -13.8249013478        0.8505224273        1.7397119453
 O       -13.3566453679        0.7004449607        2.8602950477
 C       -13.3999371383       -0.1565915039        0.6428681261
 C       -11.9242803015        0.2367178467        0.2476943281
 O       -11.4029963899        1.2925208870        0.6327677010
 C       -11.2349393113       -0.6337995122       -0.7315044102
 C        -9.7185290839       -0.8158483971       -0.4977296553
 C        -9.3004373580       -1.4190246068        0.8829403232
 O       -10.1849997961       -1.7993066821        1.6822214832
 C        -7.8276382064       -1.4916513396        1.2183619093
 C        -7.2730712340       -0.4196514049        2.2468311620
 O        -6.2394350326        0.1813597531        2.0119294949
 C        -8.1674799354       -0.0503372240        3.3456262148
 C        -7.8637863420        1.4387277610        3.6718298877
 C        -8.5589319813        1.9440226152        4.8610668244
 O        -9.7726353804        2.0616863046        4.8636216908
 C        -7.5750935939        2.1367836456        6.0565772474
 C        -6.4157053593        3.2328465637        5.4794653609
 O        -6.9234925285        4.0826981830        4.8114922312
 C        -4.9146426990        3.0484814680        5.6047167892
 C        -8.1276276408        2.7383786168        7.3396246079
 C        -7.0460174261        0.7041945085        6.3985832564
 C        -7.5712875250       -2.7953929561        2.0991856107
 C        -7.0421952231       -1.4708764663       -0.1808075116
 C       -13.2215551260       -1.5900028471        1.2946208689
 C       -14.1595740288       -0.3699352802       -0.6360933413
 C       -11.9963842944        6.3127747352        3.2200411993
 C       -13.2405075216        6.3973832590        0.9961259542
 C        -7.3553242943        4.8397976619       -4.0319897704
 C        -5.9511343732        5.2548167097       -2.0879297333
 C        -9.5534100596        6.9509573848       -6.0018478266
 C        -8.5638054446        7.4257230907       -8.2382627488
 H       -10.8146590328       10.2660304075       -8.7959640774
 H        -9.0755328742       10.0929667129       -8.8797293733
 H        -9.8739525502       11.2498844106       -7.8478254865
 H        -8.8233757008        8.9720816507       -3.8672123852
 H        -7.4961852070       10.0170600283       -4.1905346529
 H        -6.0974817567        8.7298677617       -3.4174531709
 H        -6.4690153915        7.3362555663       -4.6297456736
 H        -8.4849917621        6.2194389923        0.2410326190
 H        -8.5697124660        4.5065370290        0.4731084711
 H       -10.8703336263        4.6528298473       -0.7179814701
 H       -10.7944331695        6.4233636065       -0.5796619618
 H       -12.9491627951        3.3877014540        0.2327847529
 H       -14.2807101341        4.3612416019        0.4199564541
 H       -15.3588904468        1.7540097209        0.5653783781
 H       -15.4479073439        2.4298960580        2.2518659482
 H       -11.4668395382       -0.1572746410       -1.7059016630
 H       -11.7230980933       -1.6423267604       -0.7128527827
 H        -9.1190632022        0.1189729272       -0.5963817548
 H        -9.3227244774       -1.4066804253       -1.3562400843
 H        -8.1117806103       -0.6769651053        4.3185745970
 H        -9.1729414733       -0.2801407104        3.0570214480
 H        -8.0052329763        2.1401447934        2.8402364799
 H        -6.8236870660        1.4946474839        3.8891410893
 H        -4.6447576801        2.8834848758        6.6381388052
 H        -4.2821449511        3.8170223858        5.1274197014
 H        -4.6214081395        2.0727792018        5.1272512649
 H        -8.9994236119        3.2830274832        6.9964378503
 H        -7.4580100561        3.5334932999        7.7153178566
 H        -8.3537434578        1.9138534044        8.0147694500
 H        -7.7837147835       -0.0900321643        6.1653730288
 H        -6.7701616540        0.7848062739        7.4302936866
 H        -6.1500823461        0.3060588841        5.9274034863
 H        -7.3155824598       -3.6911243817        1.4355449192
 H        -8.4869262390       -3.0626799136        2.6630131798
 H        -6.7966352188       -2.7015105912        2.8216568378
 H        -7.4770565283       -2.0016807701       -0.9650376101
 H        -6.0642946734       -1.9592997422       -0.0020921927
 H        -7.0275756371       -0.4241359770       -0.6406244798
 H       -12.2866614436       -2.1073044664        1.0650450949
 H       -13.9727949378       -2.3420675144        1.0439745391
 H       -13.3565825497       -1.4100873347        2.2988169650
 H       -15.2329244555       -0.0651616306       -0.3684303654
 H       -13.8255951434       -1.3095465813       -1.0401096702
 H       -13.9015559727        0.4609530526       -1.3112073677
 H       -12.9050880956        6.5676134921        3.8440385637
 H       -11.4278502504        7.2037104500        3.0865952273
 H       -11.5012642973        5.5804739532        3.7664845163
 H       -13.2940230355        6.3117647566       -0.1911686755
 H       -13.1746018637        7.4527902972        1.0965607520
 H       -14.3333051167        6.3102748664        1.3551641754
 H        -6.6478787357        5.3541351621       -4.6823882568
 H        -8.3101001826        4.9287080934       -4.5486799356
 H        -6.8765668393        3.8541123399       -3.8581484357
 H        -5.6986828460        4.2881972132       -1.6312531031
 H        -5.7724970205        6.0864934517       -1.3493859228
 H        -5.2340252707        5.3826713022       -2.8948704876
 H       -10.5450707141        6.5891524344       -6.3369226841
 H        -9.6633126658        7.3287160857       -4.9611445701
 H        -8.8721683915        6.0845239797       -6.0431658039
 H        -7.5692048391        7.6934991100       -8.4976308752
 H        -9.2178534296        7.7361753816       -9.1445929818
 H        -8.5880182302        6.3537183495       -8.1643374349
 Na      -11.3749842635        2.1075143034        3.0392615107
