117

 C        -9.6880697737       10.0802571449       -8.3318392640
 C        -9.9778017782        9.1952246908       -7.1540722870
 O       -10.9827942345        9.3056572884       -6.4301194648
 C        -9.0357046257        7.9532516076       -7.0613436015
 C        -7.7586561617        8.4957096728       -6.2533183654
 O        -6.6848520216        8.6684566816       -6.7167233395
 C        -8.0171645492        8.7128259975       -4.7553399868
 C        -7.0094895998        7.7479675759       -3.9786893761
 C        -7.4881995295        6.9336988132       -2.8119546864
 O        -7.6654106097        7.5390687109       -1.7601840186
 C        -7.4388471737        5.2980223327       -2.6906510320
 C        -8.5097923150        4.7972709370       -1.7612521486
 O        -9.0134175703        3.7312693782       -1.9957759330
 C        -8.8202087505        5.3963586357       -0.2579247566
 C       -10.3311369779        5.6021574759        0.1325531522
 C       -10.8299225491        4.9385463880        1.3575182250
 O       -10.2798456310        4.0430441731        1.9277581746
 C       -12.2207860705        5.5486721702        2.0391638759
 C       -13.0734266494        4.2636019558        2.3658605008
 O       -12.9482504783        3.7301838484        3.4413581749
 C       -13.9785621869        3.5645417218        1.1831182968
 C       -14.6521130250        2.3596920875        1.4653319422
 C       -13.8051617594        1.0453455064        1.7841177815
 O       -13.3095805027        1.0102323215        2.8981323671
 C       -13.3354079379       -0.0927633561        0.7559859429
 C       -11.9319457608        0.4160486325        0.1686067006
 O       -11.4492398351        1.4308243993        0.5755911378
 C       -11.0773532907       -0.4340502366       -0.7402574080
 C        -9.6192048621       -0.2737011759       -0.3298367205
 C        -9.3707510429       -1.2623670713        0.7845997435
 O       -10.1669015807       -1.8558113317        1.4232717742
 C        -7.7816237554       -1.6342155420        1.0527646040
 C        -7.3487655259       -0.5094154396        2.0583338371
 O        -6.2554338466       -0.0120612726        1.9509149565
 C        -8.3185525571        0.0975827230        3.2251965296
 C        -8.1168302578        1.5817930118        3.4859704917
 C        -8.6434050059        2.0357059558        4.8901794112
 O        -9.8354541168        2.2235711369        5.0919997332
 C        -7.6361057486        2.3380231774        6.0561781296
 C        -6.6280060024        3.4143301526        5.5331402553
 O        -7.0512745204        4.2594477764        4.7415539809
 C        -5.1023447588        3.1783593837        5.9095676967
 C        -8.3841582921        2.9382303178        7.2515996418
 C        -6.9134080838        0.9950595481        6.4473939334
 C        -7.5750269269       -3.0045060721        1.7065286281
 C        -6.6715658364       -1.5250378015       -0.0662473226
 C       -13.3722361982       -1.4166643322        1.5346080303
 C       -14.3676092120       -0.1905096409       -0.4615146249
 C       -11.9066526303        6.1758396928        3.4032052434
 C       -13.0500014819        6.6177912333        1.1967683098
 C        -7.6763554458        4.7519346429       -4.0168745569
 C        -5.9328875827        5.2258430616       -2.2000797207
 C        -9.7971267146        6.9427949419       -6.2185529472
 C        -8.5141527113        7.5247002863       -8.4104199323
 H       -10.6712552603       10.6212613261       -8.5717681803
 H        -9.2740500680        9.4636057677       -9.1688726565
 H        -8.8795539444       10.9349248782       -8.0783358461
 H        -9.0237053102        8.6796239909       -4.5318778557
 H        -7.7665614770        9.8193918678       -4.6042783745
 H        -6.1958224668        8.3090539736       -3.5756826365
 H        -6.7629410337        6.9737090903       -4.7685435508
 H        -8.2587181970        6.3723914390       -0.0579866523
 H        -8.4591283100        4.6828626964        0.4478717734
 H       -11.0298347934        5.2471843276       -0.7009428778
 H       -10.5731097822        6.6000659476        0.2087168071
 H       -13.2759803095        3.5180257992        0.3353479723
 H       -14.6932675936        4.2491670213        0.6838826725
 H       -15.3144413344        2.2117466734        0.6273672963
 H       -15.3658813289        2.4421369125        2.2506958298
 H       -11.0650792127        0.0518796052       -1.7198137755
 H       -11.3723233464       -1.4735363277       -0.6975314737
 H        -9.2633087879        0.7384288019       -0.1789058184
 H        -9.0039633545       -0.5953682579       -1.1745707345
 H        -8.0986137470       -0.5207005615        4.0640606472
 H        -9.4357969902       -0.1271243897        3.1334898843
 H        -8.7494711078        2.1925326963        2.8289473189
 H        -7.0627263714        1.8445964616        3.2528054747
 H        -4.7633549604        2.1342720803        5.9010662895
 H        -4.8722717040        3.5857345223        6.8920843585
 H        -4.4118812630        3.7493257037        5.2669140830
 H        -9.0055954759        3.7882103706        7.0096966961
 H        -7.6133642641        3.1818181730        7.9750838000
 H        -8.9595342257        2.0694639410        7.5653700117
 H        -7.7205972189        0.1919341093        6.3811908562
 H        -6.4327808264        1.1296156485        7.4414479811
 H        -6.0600056082        0.6184101744        5.8342746231
 H        -8.0549021665       -3.8022238942        1.1419584860
 H        -7.8215539537       -3.0587103047        2.7171381386
 H        -6.5151255131       -3.2814665053        1.5868190701
 H        -6.8315494224       -2.4718943916       -0.6851926867
 H        -5.7261297823       -1.6722813854        0.3964994013
 H        -6.7551517143       -0.7132657647       -0.7253793926
 H       -12.5619118134       -1.5120218833        2.2519868343
 H       -13.1920809953       -2.2997316348        0.9475375088
 H       -14.4502478829       -1.4496467528        1.9231383459
 H       -15.0741914258       -0.9022095808       -0.2853858746
 H       -13.8173858640       -0.2380076973       -1.3850700787
 H       -14.9173174143        0.6828780641       -0.4002774321
 H       -12.7882638770        6.5977597004        3.8275248974
 H       -11.1769731209        7.0209737095        3.2608084316
 H       -11.5145627281        5.4106085101        4.1474798707
 H       -12.6649986769        6.7512819573        0.2841519383
 H       -12.9163616663        7.6908287462        1.5362980639
 H       -14.0543827579        6.5939934770        1.0893626286
 H        -7.2491642394        5.3523307235       -4.7482004617
 H        -8.7626367682        4.9429860693       -4.1553697428
 H        -7.1550517899        3.7965436358       -4.1956589623
 H        -5.5447334318        4.2576778996       -2.3863946447
 H        -5.7953339104        5.5043299564       -1.1693089718
 H        -5.2502674297        5.9860486529       -2.6892816126
 H       -10.8843974335        7.0540340383       -6.0648629680
 H        -9.3629665667        6.8557327154       -5.2280064485
 H        -9.6179180932        5.9958074288       -6.7266011933
 H        -7.7471150353        8.3023699783       -8.7580673372
 H        -9.2079521281        7.3640250156       -9.1798485242
 H        -7.8162422433        6.6516439283       -8.2214049042
 Na      -11.2732921745        2.2037662455        3.0343972996
