117

 C        -9.3046598643       10.0040420720       -8.4035061989
 C        -9.7552374067        8.9608900305       -7.4352530441
 O       -10.6375922180        9.0688547659       -6.5541294994
 C        -9.0597423778        7.6413886075       -7.4514602818
 C        -7.7456590441        7.6191603195       -6.5316222885
 O        -6.5997212079        7.5047863246       -6.8596591474
 C        -8.2163821304        7.5740030861       -4.9916407243
 C        -6.9860699351        7.2492598556       -4.0909649229
 C        -7.4617273129        6.6834480613       -2.6498264075
 O        -7.8518848471        7.3724725408       -1.7640946170
 C        -7.6106757924        5.0572312770       -2.4692572156
 C        -8.6817632276        4.7935006941       -1.4495018591
 O        -9.6075577279        4.0367607312       -1.5833446918
 C        -8.4554757164        5.3475935459        0.0524842697
 C        -9.7522830380        5.8987305883        0.5759476134
 C       -10.5321339664        4.8902318020        1.3129166061
 O       -10.1143880707        3.8139452484        1.7766625309
 C       -11.9335436295        5.4891997216        2.1036524891
 C       -12.9256774500        4.3681306129        2.4078204728
 O       -13.1107035481        4.0928816780        3.6012366946
 C       -13.8851949688        3.6940405387        1.3366658964
 C       -14.6747552724        2.5236481896        1.8201266647
 C       -13.6939988695        1.3308974514        2.0703530810
 O       -13.3435528086        1.2611396158        3.2856665989
 C       -13.2515692359        0.4057944167        0.9133015639
 C       -11.8043451284        0.8186641501        0.3642722388
 O       -11.0439915113        1.6135681928        0.8861518287
 C       -11.2333887622        0.0668018107       -0.7868755886
 C        -9.7456554599       -0.1101697867       -0.5648185581
 C        -9.4601208278       -1.3049081914        0.4265708038
 O       -10.3064192589       -2.0024943000        0.8160945161
 C        -7.9067089447       -1.3823400958        0.9718689808
 C        -7.4183590233       -0.2966320488        1.9964554428
 O        -6.1999413024       -0.1473671274        2.0398393823
 C        -8.2152383734        0.2271339387        3.1307259302
 C        -7.8628327171        1.6309953974        3.5620605450
 C        -8.6736360645        2.0883274016        4.8191228743
 O        -9.8882390567        2.1666486679        4.7847331009
 C        -7.8494033456        2.5835890736        5.9978876430
 C        -6.8894957746        3.7147414143        5.4843522834
 O        -7.0442936451        4.3661263203        4.4806486550
 C        -5.7202663913        3.9393029052        6.4673781878
 C        -8.7056965961        3.0284276007        7.1155974009
 C        -7.0168166581        1.2429064315        6.4182484690
 C        -7.6947833265       -2.7325628376        1.7901896738
 C        -6.8978042784       -1.3680644956       -0.2538693038
 C       -13.1773147069       -0.9702057137        1.6439745674
 C       -14.2318624875        0.3723438567       -0.3253529850
 C       -11.1491737953        5.9051055439        3.4217650828
 C       -12.6351637030        6.6573941803        1.4499478292
 C        -8.1803297084        4.6141246765       -3.9297201906
 C        -6.2269134864        4.3823351370       -1.9898667320
 C       -10.1248288227        6.5511149214       -7.0999356210
 C        -8.5719968777        7.2833918311       -8.8759721487
 H        -8.3525689831       10.2828610227       -7.9380582909
 H       -10.0963615482       10.8114357749       -8.6010644105
 H        -9.2154107729        9.6938391778       -9.4524439379
 H        -9.1145372351        7.1074929088       -4.9040468116
 H        -8.3302411195        8.6897350153       -4.8264805953
 H        -6.6106041341        8.1696151656       -3.8380945061
 H        -6.1796095942        6.6976565140       -4.6471385594
 H        -7.7193407786        6.2185252618        0.1254631532
 H        -8.1273579134        4.4620040040        0.6194930561
 H       -10.3425670923        6.5046946443       -0.2094701639
 H        -9.5109521480        6.5618627335        1.3659008909
 H       -13.3105080235        3.5403469909        0.3737389521
 H       -14.6308840747        4.4354617570        0.8723011967
 H       -15.5117316271        2.2874078519        1.2294654445
 H       -15.1000391566        2.5643514111        2.7631923333
 H       -11.3079646411        0.8559245853       -1.4968209908
 H       -11.7139193014       -0.8747144374       -0.9180471011
 H        -9.3113760159        0.7971091723       -0.1195121707
 H        -9.1559695223       -0.2122634088       -1.4736972915
 H        -7.8613299857       -0.5217636944        3.8837021851
 H        -9.3680215991        0.1469027877        3.0129646327
 H        -8.1844613237        2.3882957690        2.8852375437
 H        -6.7836514824        1.7078955226        3.6280972753
 H        -5.3333578169        4.9492449562        6.7005583801
 H        -4.8765197342        3.3572994678        6.1543051752
 H        -6.0581358089        3.4661022415        7.4832544942
 H        -9.3822410252        3.7185696256        6.6944402290
 H        -8.0478063587        3.3339539963        7.9610950064
 H        -9.3578095974        2.2046500297        7.3984456866
 H        -6.0471821854        1.6127286772        6.8533170547
 H        -6.8324134607        0.5908112659        5.5430152016
 H        -7.6768725714        0.5311428846        6.9973494581
 H        -7.3748188341       -3.6559926261        1.2323297317
 H        -8.4161747381       -2.9098046997        2.4677353204
 H        -6.7941537274       -2.5266163005        2.3353533571
 H        -7.2278957109       -1.9750337119       -1.1058235980
 H        -5.9006381645       -1.4971714580        0.1007596197
 H        -6.8839449188       -0.3256561068       -0.5663509354
 H       -14.1563608434       -1.4669595214        1.5863791351
 H       -12.8769637114       -1.0113986711        2.6808728393
 H       -12.4257092133       -1.4878376633        1.0359485314
 H       -14.4087972803       -0.6683612348       -0.6586496346
 H       -13.7730864823        0.8991215497       -1.1664926831
 H       -15.0869332540        0.9162083157       -0.0541736943
 H       -11.8503173003        6.3104007672        4.1282084358
 H       -10.3581147848        6.6629383580        3.2472123861
 H       -10.6733492035        5.0274946551        3.8693955402
 H       -13.3408238137        6.5170511108        0.6384952260
 H       -11.9327453394        7.2863265287        0.9201482090
 H       -13.1748801394        7.2953326365        2.1196588798
 H        -7.3368550824        4.4771098418       -4.5043629023
 H        -8.8587678706        5.4680923040       -4.2919586807
 H        -8.7436186744        3.6103375378       -3.9219435784
 H        -6.3382270253        3.4849073222       -1.5776252223
 H        -5.6720517024        5.0071460732       -1.2564886756
 H        -5.4822420754        4.3705357517       -2.8085706233
 H       -10.0797701629        6.3196757482       -6.0133808495
 H        -9.9547087550        5.5794226529       -7.6226808838
 H       -11.1157909635        6.8341686980       -7.4228746901
 H        -7.6545640675        7.8726675947       -9.1719899596
 H        -9.3377944165        7.6069708046       -9.5842632936
 H        -8.3085581935        6.2187386679       -9.0528164037
 Na      -11.3877912048        2.4124356198        3.1074861497
