117

 C        -8.3739460692        9.8048061842       -7.9991811582
 C        -9.1511319319        8.6093741361       -7.6178634631
 O        -9.9901108431        8.7486944579       -6.7456343821
 C        -8.9989551677        7.1159510740       -8.1849029943
 C        -8.1698164063        6.3453232476       -7.1016363707
 O        -7.1089407936        5.8320317910       -7.3438245008
 C        -8.7028301474        6.0030203228       -5.6175660994
 C        -7.4826597160        5.8380124394       -4.5175327917
 C        -7.8079732236        5.8827274475       -3.0764298319
 O        -8.1233826964        6.9710459942       -2.5937207162
 C        -8.0408710601        4.5818021927       -2.1467945578
 C        -9.0488360926        4.9288378787       -0.8612308201
 O       -10.2383721495        4.8563602265       -0.9535035764
 C        -8.2237566053        5.2172444947        0.4075204954
 C        -9.0998843200        6.1434645504        1.2153019396
 C       -10.1660008685        5.3375967616        2.0513996040
 O        -9.9462703376        4.2341630416        2.4840825490
 C       -11.5081837771        6.0453801522        2.4254374000
 C       -12.4800588439        4.8069222741        2.7561557448
 O       -12.6408140828        4.5208365265        3.9364921052
 C       -13.0847793592        4.1961152461        1.4192582277
 C       -14.2371892682        3.1780282771        1.5551416551
 C       -13.6624859383        1.7524140025        1.8311748359
 O       -13.3132943752        1.4835025030        2.9499729486
 C       -13.3864290142        0.7126299451        0.8443928714
 C       -11.8759351195        0.7523677913        0.4537673463
 O       -11.1534758045        1.2221300871        1.3183715360
 C       -11.2148701828        0.2502135714       -0.8866396833
 C        -9.6867926609        0.1757842698       -0.6346137301
 C        -9.4838898321       -1.0006599835        0.4168051695
 O       -10.4289589818       -1.5985272594        0.8520952347
 C        -7.8674526800       -1.2513056808        0.8329517087
 C        -7.3641525609        0.0108501030        1.7322816330
 O        -6.5533168060        0.8038855590        1.4156883545
 C        -8.2896940885        0.2428933754        2.9863170927
 C        -7.6791223028        1.3998470959        3.7530683893
 C        -8.5505607350        1.9216170980        5.0197807436
 O        -9.7694187959        1.9076243390        5.0583004982
 C        -7.8022188794        2.6148106978        6.1769975533
 C        -7.0407524570        4.0782908298        5.7455573036
 O        -6.7132169945        4.1708519759        4.5977889428
 C        -6.7937662294        5.2015741440        6.6918680876
 C        -8.7329465738        2.6945345381        7.3748285661
 C        -6.3945051450        1.7861788507        6.4014349191
 C        -7.9110956092       -2.5435291511        1.6794364715
 C        -7.1582576240       -1.4528733855       -0.5324238374
 C       -13.9147821653       -0.7524944429        1.2914021113
 C       -14.4226948625        1.0626405313       -0.3871889516
 C       -11.1941518706        6.9037927159        3.6214531406
 C       -12.1589529008        6.9869452878        1.3397844584
 C        -8.6182526622        3.4755924309       -2.9644069303
 C        -6.6607834596        4.0969076920       -1.7669785044
 C       -10.3674508989        6.5233007343       -8.2272268860
 C        -8.2235810488        6.9583387430       -9.4833851166
 H        -8.9328871759       10.6946621330       -7.5849730569
 H        -8.2190874131        9.9796028345       -9.1167874339
 H        -7.2884017906        9.6168572179       -7.5739056459
 H        -9.0806942843        4.9430650024       -5.4317928391
 H        -9.5710604031        6.6641279416       -5.4208599071
 H        -6.5885886846        6.5547664017       -4.6828984290
 H        -6.8768154085        4.9225681900       -4.7756343265
 H        -7.3337235592        5.6945350294        0.0766911226
 H        -8.1471712174        4.2408141826        0.8658686086
 H        -9.5513445091        6.8973459699        0.6119178858
 H        -8.5324000019        6.6584358785        2.0103094718
 H       -12.2935728177        3.6372632469        0.9250139847
 H       -13.4499718597        4.8786971813        0.7186836169
 H       -14.8750587568        3.1362064105        0.6203296504
 H       -14.8925155599        3.2595083045        2.4663444648
 H       -11.3008816531        0.9774860721       -1.7192647119
 H       -11.5234257356       -0.7809892594       -1.0755396314
 H        -9.1046388882        1.0001713970       -0.3066678747
 H        -9.2270326630       -0.1619073121       -1.5759945967
 H        -8.3185677075       -0.5738248873        3.6647696283
 H        -9.2250096795        0.4969568068        2.5130870882
 H        -7.7266037082        2.2394453669        3.0005015926
 H        -6.6384909578        1.2741673197        4.0492626930
 H        -6.9676708390        4.8478918212        7.7267810830
 H        -7.4664703502        6.0251346504        6.4044799159
 H        -5.7914008263        5.6198059137        6.6424751589
 H        -9.3871779606        3.6164515364        7.3577698428
 H        -8.3330711068        2.5866426794        8.3304389516
 H        -9.3740505715        1.8282038540        7.2230588582
 H        -6.4999277398        1.0683986204        7.2173980132
 H        -5.5533308214        2.5208914258        6.6620046024
 H        -6.0811979609        1.4113698745        5.4183841595
 H        -8.4300021042       -3.3408262207        1.1793674798
 H        -8.3230445963       -2.4362591980        2.6477387860
 H        -6.8476692888       -2.8105445847        1.8395394289
 H        -7.4340274209       -2.4374233164       -1.0145304908
 H        -6.1254167944       -1.3647309025       -0.3246808355
 H        -7.4283392554       -0.6771577399       -1.1515143618
 H       -13.3019669100       -1.5756683217        0.9353423981
 H       -14.9387278289       -0.8120562429        0.9993716793
 H       -14.0329888984       -0.7254819465        2.4001508565
 H       -14.5343349781        0.3699865779       -1.1470876307
 H       -13.9644340331        1.9215058973       -0.9101819830
 H       -15.3426273078        1.5087915759       -0.1219854573
 H       -11.9505717700        7.6143192139        3.8205146797
 H       -10.3617059555        7.4857783611        3.1810391347
 H       -10.7638010826        6.3935801806        4.5501314325
 H       -12.5213480473        6.3910235016        0.5806619212
 H       -11.4488656798        7.7324039318        0.9474006615
 H       -12.9580798079        7.5265212122        1.7229640632
 H        -9.4517091824        3.5507828035       -3.5059949948
 H        -8.4432166355        2.4936834239       -2.3997838461
 H        -7.8326058098        3.2935050105       -3.7058422695
 H        -6.6006141862        3.3319857971       -1.0125153932
 H        -5.9844388116        4.7857249170       -1.3116945978
 H        -6.2545234772        3.4665147330       -2.5765809391
 H       -11.1840107809        7.2067763709       -7.9809242518
 H       -10.4797884376        5.5496215591       -7.7479232144
 H       -10.5826460149        6.3029085624       -9.3291119247
 H        -7.2180954406        7.4885977474       -9.4018162425
 H        -8.6691153154        7.1781063629      -10.4098319951
 H        -8.1127264853        5.8194335738       -9.5475207405
 Na      -11.3462954103        2.2938673648        3.3800037726
