117

 C        -7.9798837740        9.3257982509       -8.0486660136
 C        -9.0279280714        8.3527874262       -7.5320987750
 O        -9.8718181627        8.7472297422       -6.7938845290
 C        -8.9604037758        6.9294817547       -8.2100353522
 C        -8.1480925078        5.8687594992       -7.2266585417
 O        -7.1637482136        5.2571587822       -7.6179354986
 C        -8.7477845760        5.7684921101       -5.8240456210
 C        -7.6639420121        5.3262927481       -4.7347630584
 C        -8.1218762436        5.5337233199       -3.1820329981
 O        -8.3583663698        6.6755157989       -2.8513177028
 C        -8.2094198950        4.3899258321       -2.0685651314
 C        -8.8601734882        4.9917291195       -0.8157751021
 O       -10.0870143048        4.8894550136       -0.6715953025
 C        -8.0163499631        5.5015126014        0.4399066830
 C        -8.8479132647        6.2418553608        1.4675435760
 C        -9.9916233027        5.4251562641        2.2081768190
 O        -9.7336866740        4.3162524135        2.6538780565
 C       -11.4748941331        6.1450248277        2.4696253565
 C       -12.5340775265        5.0338592522        2.7097068421
 O       -12.7870742748        4.5974535420        3.7972591550
 C       -13.1219136971        4.4176362990        1.3516267855
 C       -14.2545384413        3.3753145156        1.6082106726
 C       -13.6872633223        1.8768387607        1.8998492185
 O       -13.5008887589        1.5028494969        3.0542739689
 C       -13.6295786501        0.8691031019        0.6132545857
 C       -12.0356296462        0.9925909544        0.4643397509
 O       -11.3414306393        1.4207368613        1.3487672586
 C       -11.4552450965        0.3091974498       -0.7697898269
 C        -9.9749189171        0.1479372591       -0.6700498731
 C        -9.5681340294       -0.8087374717        0.4720219061
 O       -10.4011644104       -1.5450511762        0.9938860370
 C        -8.0564861195       -1.0548419904        0.8075208836
 C        -7.6094728497        0.1311268138        1.5927235466
 O        -6.8837486373        0.9360654620        1.0210355881
 C        -7.9555445884        0.2745861657        3.0574295242
 C        -7.4415529497        1.5884450070        3.6243003782
 C        -8.1303174926        1.8652202534        5.0087715094
 O        -9.3437244920        1.8044418356        5.0479839840
 C        -7.5568801115        2.5836217243        6.2522290769
 C        -7.2165330752        3.9360788811        5.6314388275
 O        -6.8786687411        4.0812055120        4.4446295669
 C        -7.2789852024        5.1225699424        6.6500895749
 C        -8.6060409186        2.5731130123        7.5961301366
 C        -6.2144521851        2.0261874530        6.8977527383
 C        -7.9670559264       -2.4416339088        1.7430174717
 C        -6.9955119920       -1.2322157255       -0.3555182525
 C       -14.0742472598       -0.5599181537        1.1254229125
 C       -14.1047634610        1.1616940887       -0.7372993118
 C       -11.1763707443        7.0290558040        3.7947422451
 C       -11.7586182109        6.9584674164        1.2222352475
 C        -9.1465952637        3.1803740929       -2.5593476847
 C        -6.8058430573        3.9502848875       -1.6627378242
 C       -10.4256838602        6.4782006332       -8.5455777730
 C        -8.1546889294        7.0955659016       -9.4679580367
 H        -7.6318665045        9.8655808094       -7.1543312295
 H        -8.5278475478       10.0121483892       -8.5895361447
 H        -7.1227698672        9.0917046222       -8.5832797101
 H        -9.4262937711        4.9363067215       -5.7812682005
 H        -9.3600993547        6.5906216992       -5.4396070164
 H        -6.7650879129        5.8733042970       -4.9553464946
 H        -7.3384660400        4.3410005068       -4.9379911173
 H        -7.3303937456        6.2477731983        0.0272319013
 H        -7.6048668168        4.5619292340        0.8638856367
 H        -9.3084753069        7.1528713042        1.0441498560
 H        -8.1445454419        6.6113948295        2.2480312660
 H       -12.3056615384        3.9469801280        0.7657919281
 H       -13.6440443008        5.1910724797        0.6716035209
 H       -14.9582804757        3.3253531884        0.8055327343
 H       -14.7113693680        3.6345631405        2.5670188755
 H       -11.6677788288        0.8621738607       -1.6817880552
 H       -11.9134614790       -0.7240716569       -0.6914909260
 H        -9.4249187540        1.1184702654       -0.4908697046
 H        -9.5079494470       -0.2965272411       -1.5393227335
 H        -7.4894995326       -0.4857727555        3.7434208990
 H        -9.0561925683        0.2886963893        3.1095505977
 H        -7.7583170563        2.3752285497        2.9660951130
 H        -6.3906204933        1.6598977560        3.8812328735
 H        -6.7603899773        4.9103570202        7.5504417348
 H        -8.3398993178        5.3599972068        6.8531840185
 H        -6.9007997076        6.0362500105        6.2410311973
 H        -9.6243443191        2.7046399092        7.2948511314
 H        -8.5227328237        3.5384634910        8.1753795025
 H        -8.4523072615        1.7087884318        8.2552365797
 H        -6.4799756212        1.7770631648        7.9059240406
 H        -5.4827814950        2.7506195043        7.0833786641
 H        -5.8943655896        1.2054656275        6.3133669326
 H        -8.0216809716       -3.3402884109        1.1547983252
 H        -8.8153873912       -2.5289202064        2.5472378882
 H        -7.0652708679       -2.3819579439        2.3528526561
 H        -7.2349315063       -2.0591556949       -0.9501639791
 H        -6.1124730681       -1.4334475760        0.2864703769
 H        -6.8301220458       -0.2662223445       -0.9406285227
 H       -13.8661640106       -1.2266328142        0.2655633222
 H       -15.0666863218       -0.6833952413        1.6265857654
 H       -13.3604629120       -0.8200209528        1.8858569579
 H       -14.1940220702        0.2716270499       -1.4656896614
 H       -13.5907395275        1.9089823599       -1.3291437245
 H       -15.2125648080        1.4932589309       -0.7634341503
 H       -12.2015081805        7.4919372949        3.9583425494
 H       -10.4921851102        7.8542176392        3.6458217729
 H       -10.9530694687        6.4482920987        4.6289434519
 H       -11.2882859129        6.6268595019        0.2418132919
 H       -11.4523186335        8.0165869797        1.5305533066
 H       -12.9026650361        6.9557451010        0.9719118748
 H       -10.1704329009        3.0748033937       -1.9373576080
 H        -8.6091149121        2.3042561576       -2.5766692750
 H        -9.5662590916        3.3267093667       -3.5702702375
 H        -6.5363277356        3.2285973886       -0.8212649437
 H        -6.1275552665        4.7582947922       -1.3469766152
 H        -6.4559854056        3.4064348413       -2.4922895912
 H       -11.1289409311        7.3005990397       -8.6912852079
 H       -10.7862153801        5.8938093490       -7.6759445883
 H       -10.5535280174        5.9579715391       -9.4574334893
 H        -7.1251467856        7.0803543209       -9.3374931058
 H        -8.4614734866        8.0773915997       -9.9468285566
 H        -8.4671555436        6.4195573429      -10.1850766379
 Na      -11.0750147885        2.4953413899        3.4547903089
