117

 C        -7.7419693262        9.2885982496       -7.8268480447
 C        -8.8875531724        8.3044762022       -7.5440713465
 O        -9.7700621881        8.5710958904       -6.7791398105
 C        -8.8905372996        6.8516417381       -8.2782522810
 C        -8.2581180184        5.7089319213       -7.2931125130
 O        -7.2965028813        5.0591420185       -7.6557101605
 C        -8.7584579315        5.6521798893       -5.8130460282
 C        -7.8716653355        4.8386411884       -4.6164398128
 C        -8.2910584699        5.3664654602       -3.2121675051
 O        -8.5357676656        6.5610716746       -2.9271338763
 C        -8.2698513278        4.3657616004       -2.0441389428
 C        -8.9316848137        5.0242916113       -0.6604869667
 O       -10.1335211431        4.9898610443       -0.4466174226
 C        -7.9710724044        5.6536096232        0.3571773689
 C        -8.7735462823        6.3001429020        1.5449190645
 C        -9.9145664166        5.4439559623        2.2979717274
 O        -9.7487536504        4.2958607478        2.6536640069
 C       -11.2739395866        6.2215829756        2.5027708537
 C       -12.3878465411        4.9889816146        2.5187182066
 O       -12.7252063755        4.6225257817        3.6120968031
 C       -13.2010225977        4.4513184578        1.3566810946
 C       -14.4534205126        3.4969711722        1.7304244867
 C       -14.0085299538        2.0015471841        1.8545396288
 O       -13.6008214631        1.6501316215        2.9188806567
 C       -13.6097723171        0.9485898002        0.6408904258
 C       -12.0268978015        0.8730730803        0.5606749413
 O       -11.3138268684        1.5296549314        1.2863626846
 C       -11.4085710365        0.2369163546       -0.7996514003
 C        -9.9278920514        0.0176607040       -0.7523639122
 C        -9.6055014286       -1.0211151899        0.3815525810
 O       -10.5644061397       -1.3828619185        1.0332043022
 C        -8.0181870111       -1.0919591146        0.8250273107
 C        -7.4765387416        0.2266457361        1.4932130516
 O        -7.1237865152        1.1905213891        0.9092793306
 C        -7.8070341833        0.2377472745        3.0847273756
 C        -7.3146569079        1.5525202341        3.8011420674
 C        -8.0878430396        1.8171703955        5.1116927215
 O        -9.2996821247        1.7464956938        5.0289205712
 C        -7.4007721355        2.5781136916        6.3449787530
 C        -7.2198589371        4.0272111507        5.7725471141
 O        -7.0177919928        4.1638123400        4.5823587761
 C        -7.5364894418        5.2704036056        6.5974118453
 C        -8.5394373050        2.6092706008        7.3922502120
 C        -6.0326292523        1.9457924429        6.8828868877
 C        -7.8929883240       -2.3521955804        1.7822960082
 C        -7.0589647033       -1.2247562602       -0.3371668169
 C       -13.9640652215       -0.4710116822        1.1031614757
 C       -14.1550325253        1.4237858679       -0.6722525445
 C       -11.3112212984        6.9662332579        3.7888869896
 C       -11.4753132724        7.1775322862        1.2347218349
 C        -9.1651069556        3.2122834181       -2.4381917005
 C        -6.8320643454        3.7551471265       -1.9975912384
 C       -10.3473160304        6.3568311730       -8.5272711329
 C        -8.1890519059        6.9574203945       -9.6879169028
 H        -7.2369554375        9.5261926914       -6.8852798563
 H        -8.0311432554       10.1434487461       -8.3545586885
 H        -6.8442142888        8.8572116573       -8.3526220134
 H        -9.8215056217        5.3063177275       -5.8243228186
 H        -8.8843455824        6.5694611687       -5.3765535439
 H        -6.8379993005        4.9985756073       -5.0007099233
 H        -7.9466212585        3.8071408886       -4.5422067599
 H        -7.6515774967        6.4652262265       -0.2532613147
 H        -7.1789317184        4.8817751650        0.7081677353
 H        -9.1016231435        7.2603651727        1.3779430633
 H        -7.9689846045        6.3537313388        2.3574018154
 H       -12.4342268461        3.7561598911        0.8379347581
 H       -13.6490878871        5.0949522102        0.5383815501
 H       -15.2447378698        3.6239869595        1.0877117559
 H       -14.6898924597        3.7350650847        2.7244562546
 H       -11.5989195769        0.9926777019       -1.5213489227
 H       -11.8858124797       -0.7361314347       -1.0045822643
 H        -9.3770129238        0.9944402801       -0.5783849471
 H        -9.4944812544       -0.4372752054       -1.6522833743
 H        -7.2028214010       -0.5305762356        3.7052296414
 H        -8.8758571361        0.1806617415        3.2408410707
 H        -7.7365210223        2.3499818116        3.2271873888
 H        -6.2873330965        1.7737718894        3.9951772203
 H        -6.7651042972        5.3374887573        7.3710842954
 H        -8.5718954654        5.3127923663        7.0761140132
 H        -7.5233521627        6.1344148022        6.0046592302
 H        -9.5714720840        2.5792775591        6.9354432329
 H        -8.6596855804        3.5715250352        7.7425095237
 H        -8.4184508601        1.9567808083        8.2706496838
 H        -6.1036531979        1.5819872047        7.8720479917
 H        -5.3205459940        2.7448352755        7.0904237432
 H        -5.8127934413        1.1928433861        6.1403041870
 H        -7.9874158573       -3.1940880371        1.1932988368
 H        -8.7693847212       -2.3739863846        2.4617100607
 H        -7.0047714498       -2.3553677817        2.4498882478
 H        -7.5612519889       -1.9854546358       -1.0124647937
 H        -6.0503841823       -1.5129422208        0.0312607882
 H        -7.0457930114       -0.2339719988       -0.7980880302
 H       -14.1375277418       -0.8966163424        0.1312254116
 H       -14.8694849038       -0.4377128923        1.6894564952
 H       -13.2708051131       -1.1437030967        1.6472699919
 H       -13.9504279432        0.8292181509       -1.5420385090
 H       -13.9443998571        2.4592470442       -1.0584601055
 H       -15.2890839407        1.2445289835       -0.6864014454
 H       -12.3389221176        7.2796375431        3.8786009055
 H       -10.7211568587        7.8481789153        3.7623363484
 H       -11.1184535220        6.3529025755        4.6807168263
 H       -11.1705915413        6.6373530270        0.3822454952
 H       -10.9546390428        8.2354052620        1.2682086979
 H       -12.5469712256        7.2855658634        1.1162962299
 H        -9.7609208131        2.9476356496       -1.5721976018
 H        -8.6152952076        2.2603643488       -2.7882163682
 H        -9.9825151645        3.4598976375       -3.1483092195
 H        -6.5313997144        2.9284868710       -1.2900774747
 H        -6.1714829841        4.4749203926       -1.5960394399
 H        -6.5123820749        3.4296132294       -2.9524698620
 H       -10.8686039067        7.0906665892       -9.1002837728
 H       -10.8805575184        6.2500655094       -7.6044527789
 H       -10.4716524930        5.5399838606       -9.2354008773
 H        -7.1140559515        7.0293496329       -9.5943096409
 H        -8.5677428886        7.8033501326      -10.1965329207
 H        -8.3918714571        6.1124709383      -10.3365840094
 Na      -10.9491156685        2.6637279774        3.5598902093
