117

 C        -7.5508031744        9.1230229325       -7.5560941788
 C        -8.6967441932        8.1037972508       -7.5646039097
 O        -9.6511828938        8.3551826545       -6.7778589105
 C        -8.8235341770        6.7933371866       -8.2483213022
 C        -8.1480726173        5.6852404725       -7.2214878749
 O        -7.4554117334        4.8439704039       -7.7115291664
 C        -8.7963495491        5.6437862110       -5.7574997805
 C        -8.2913465963        4.6939637708       -4.7180507277
 C        -8.4806647253        5.3113203689       -3.2802739067
 O        -8.6741961977        6.4693461902       -3.1836678491
 C        -8.4001636547        4.2463682335       -1.9263525236
 C        -8.8945673100        5.0039887246       -0.6271986402
 O       -10.0438671198        4.9503691587       -0.3862436715
 C        -7.9197287317        5.8052898305        0.3418945760
 C        -8.5515014271        6.2661604325        1.7596334277
 C        -9.7746486935        5.4776867241        2.1261032114
 O        -9.6091388404        4.3839713074        2.6080879725
 C       -11.3118743673        6.1221343512        2.2877414938
 C       -12.4242737612        5.0009686475        2.3850974046
 O       -12.5093718961        4.5740633692        3.5739849063
 C       -13.2253583223        4.4905005320        1.2108213310
 C       -14.3770541499        3.5900565736        1.6536565846
 C       -13.8825529832        2.1704704488        1.8862489309
 O       -13.6661197116        1.7324716248        3.0065587739
 C       -13.6163214507        1.1287131063        0.6200504061
 C       -11.8930086709        1.1348798067        0.4544826948
 O       -11.0753685699        1.5699040780        1.2838455500
 C       -11.4130840004        0.3329642951       -0.7613776907
 C        -9.9176948953       -0.0617981257       -0.7872352450
 C        -9.4838164941       -0.9327277270        0.4974537924
 O       -10.3856221197       -1.3890334015        1.1507472544
 C        -8.0995649781       -1.1255431431        0.8257362206
 C        -7.7065368770        0.3681653779        1.6302863718
 O        -7.4355806204        1.3290138432        0.9491518033
 C        -7.6251493198        0.2833523678        3.1006560258
 C        -7.0504625618        1.5010392506        3.8568345907
 C        -8.1209814129        1.9245637061        5.0481271758
 O        -9.3268207757        1.6383389650        5.0566101053
 C        -7.4676741309        2.5749641678        6.3503234067
 C        -7.3525500659        4.1935964048        5.8075505385
 O        -7.0178475140        4.3264993404        4.6708742200
 C        -7.6904294111        5.4510264663        6.5778015650
 C        -8.4352016483        2.4965064146        7.4814341378
 C        -6.0375074587        1.9445442108        6.7352341796
 C        -7.8643239672       -2.2747391839        1.7724207667
 C        -7.1963525619       -1.3803383686       -0.5391259880
 C       -14.0092547430       -0.3553914914        1.0335030479
 C       -14.4262088260        1.6930179607       -0.6053335102
 C       -11.4435759732        6.8447741508        3.7011351738
 C       -11.3989495853        7.3458652695        1.2881051546
 C        -9.4023180837        3.0517468201       -2.3354035621
 C        -6.9183348207        3.6735879961       -2.0530431172
 C       -10.3003470150        6.3448292971       -8.4096851215
 C        -8.1944630712        6.6250649512       -9.7222032150
 H        -7.0755011544        9.2817640698       -6.5898358619
 H        -7.7889504910       10.0995934245       -8.1849651583
 H        -6.6226538611        8.6912327244       -8.0432028418
 H        -9.8515530948        5.4954111800       -5.9976874594
 H        -8.8280143005        6.5734695980       -5.1019220343
 H        -7.3021247553        4.3528512054       -5.1135258184
 H        -8.8852362242        3.6830858131       -4.6362236830
 H        -7.5731237444        6.6986096812       -0.2064333089
 H        -7.1640261399        5.0593598563        0.5561218073
 H        -8.8296765332        7.3431255737        1.8345131554
 H        -7.7889004723        6.0745121889        2.4879161240
 H       -12.5210485084        3.9587875214        0.5135474758
 H       -13.7517828581        5.2080622561        0.6334713176
 H       -15.1872668757        3.5343963418        0.9153114503
 H       -14.6804575443        4.0535695660        2.5788126208
 H       -11.6174223281        0.9915473269       -1.6416122162
 H       -12.0694324843       -0.5145068946       -0.7863687485
 H        -9.3579646377        0.8424077807       -0.8771657726
 H        -9.6199340755       -0.7608552815       -1.6375870294
 H        -6.8200840416       -0.3759098370        3.2590056073
 H        -8.5419659486       -0.0648156758        3.6276983155
 H        -6.8445613534        2.4262651243        3.2864800419
 H        -6.1864059967        1.2979315725        4.4552404728
 H        -6.8946862662        5.5694501760        7.3675618135
 H        -8.6466399143        5.4132966198        7.0414368298
 H        -7.7366849292        6.3674237637        5.9006768653
 H        -9.4810055800        2.6396456694        7.2236881792
 H        -8.3343435047        3.3784898714        8.1133317913
 H        -8.2199959092        1.6403334365        8.0950884308
 H        -5.9356266928        1.3884475897        7.6772975576
 H        -5.4918962134        2.8558611014        7.0325331846
 H        -5.7025898013        1.3461181785        5.8788149921
 H        -8.1155016521       -3.1886332743        1.1698525393
 H        -8.5167358632       -2.2409255938        2.5252807646
 H        -6.8910677994       -2.3163268724        2.2288442129
 H        -7.8649645071       -2.1313303484       -1.0645777669
 H        -6.1678169143       -1.6908346810       -0.4079093319
 H        -7.3063447863       -0.4502699096       -1.0468116222
 H       -14.3434979237       -0.7924568644        0.1195871674
 H       -14.9128226700       -0.1024372787        1.5439215976
 H       -13.4290735668       -1.1067924416        1.5527081129
 H       -13.9949336829        1.2810206038       -1.4960886872
 H       -14.4345208290        2.7457624336       -0.9021810299
 H       -15.3180653558        1.2436180552       -0.7520497828
 H       -12.3964847389        7.1961349764        3.9022642914
 H       -10.7040877143        7.6418858733        3.7461308507
 H       -11.1904899160        6.0793084795        4.4750945025
 H       -11.4209834124        7.0109107193        0.2477403584
 H       -10.6214562334        7.9701370368        1.3809511624
 H       -12.2986670212        7.8175401715        1.5811599829
 H        -9.5519649427        2.3853425775       -1.5075864094
 H        -9.0541405360        2.3581959695       -3.1838988498
 H       -10.3813672952        3.4733646921       -2.5487254329
 H        -6.7085477850        2.9489675173       -1.4002771889
 H        -6.2455144853        4.4238851262       -1.6157982643
 H        -6.5100225388        3.3347374971       -3.0517146769
 H       -10.5856428293        6.6576034474       -9.4120000048
 H       -10.9873945388        6.7719208097       -7.7316126382
 H       -10.4201895094        5.2835902571       -8.6282423743
 H        -7.0922267792        6.8327744556       -9.6370968668
 H        -8.6576332135        7.2384610071      -10.4254818320
 H        -8.2259563750        5.5616454022      -10.1001095717
 Na      -10.9575698936        2.7296766572        3.6129370786
