117

 C        -6.5936757176        7.4941471926       -7.0746675747
 C        -8.0447824869        7.3234539819       -7.6274101644
 O        -8.8635332478        8.2224818155       -7.5940792362
 C        -8.5612183757        5.9138500485       -8.0691881103
 C        -8.6927405947        5.0846880573       -6.8149671525
 O        -8.4216771350        3.8952351611       -6.7834854907
 C        -9.1240710139        5.6704052259       -5.4832894428
 C        -9.6003966135        4.5800153968       -4.5887874609
 C        -9.3924550366        5.0364324944       -3.1691139113
 O        -9.3955144060        6.2295046809       -2.9126350955
 C        -9.0084324626        3.8174199770       -2.1215611561
 C        -9.2045521111        4.5773048420       -0.7779941231
 O       -10.3221595227        4.6362210305       -0.2597225933
 C        -8.0460979620        5.4652566507       -0.2193996916
 C        -8.2485234560        6.1231888190        1.1366933988
 C        -9.4318108900        5.5371295523        1.9084959336
 O        -9.3233209482        4.3548361286        2.3225600527
 C       -10.6652306219        6.5259137313        2.2777171582
 C       -11.7885747036        5.4471660187        2.6557381880
 O       -11.7157418055        4.6297927848        3.5283023660
 C       -12.9849193046        5.5158010607        1.7090723008
 C       -13.8888147239        4.3258386312        1.8156564530
 C       -13.2947136910        2.8206974223        1.7728650527
 O       -12.8820080509        2.4255476083        2.8491194965
 C       -13.4705406134        1.6368952050        0.6792982838
 C       -12.0248326147        1.0372737724        0.4298498676
 O       -11.0587748057        1.6507728735        0.8495420614
 C       -11.7750738466       -0.1949056168       -0.5130286628
 C       -10.2526775447       -0.4580440755       -0.7551450157
 C        -9.6655744229       -0.9424968140        0.6635723945
 O       -10.3956205604       -1.3757446656        1.5604144323
 C        -8.1614629964       -0.9300138108        1.0345083263
 C        -7.9535948380        0.4834942025        1.7568841751
 O        -8.3686208414        1.4245164623        1.1976461293
 C        -7.2423375441        0.6213655646        3.1131575492
 C        -7.2587424668        2.0552350509        3.5097505053
 C        -8.1006502069        2.3480853534        4.8315574877
 O        -9.2824684485        2.0944311189        4.7775352845
 C        -7.4433176109        2.9692044690        6.1340708874
 C        -7.6476853832        4.5752338939        5.9556456202
 O        -7.1741119764        4.9711778954        4.8745112935
 C        -8.4446424558        5.3178225086        6.9506468801
 C        -8.2324117145        2.4652760991        7.3537410447
 C        -6.0168089693        2.3536643779        6.0759164981
 C        -7.9823401836       -2.0769022189        2.0296262427
 C        -7.3005845524       -1.1323491268       -0.2229252427
 C       -14.5179630416        0.6047580010        1.2497645653
 C       -13.8887970527        2.3582822539       -0.5934723329
 C       -10.5011760155        7.4417438682        3.6247326435
 C       -10.9535961944        7.4387102984        1.0057044134
 C       -10.0984018555        2.7761514958       -2.2696126107
 C        -7.6052705830        3.1627274898       -2.0730848483
 C       -10.0288960539        6.0372096340       -8.5733764169
 C        -7.6612618521        5.2737605323       -9.1347396592
 H        -6.0171512583        8.4323840090       -7.2105943132
 H        -5.9447705826        6.7158110127       -7.5616430884
 H        -6.4448648541        7.4437509743       -5.9691058327
 H        -9.8835280491        6.5026260562       -5.7819199251
 H        -8.3954886699        6.1744470176       -4.8126425283
 H        -9.0186584874        3.6337049070       -4.9826380616
 H       -10.6281047356        4.3919507619       -4.8364189016
 H        -7.9467954088        6.1626034554       -0.9962427546
 H        -7.1418204189        4.8287311107       -0.3310729467
 H        -8.3173099799        7.1602800278        0.9722351556
 H        -7.2657108024        5.9437458915        1.7351084138
 H       -12.7544787680        5.5382525762        0.6889764903
 H       -13.5384197234        6.3970385171        1.8949360431
 H       -14.6475515189        4.3357372994        0.9474707250
 H       -14.5510949537        4.5589536791        2.7170518753
 H       -12.3390059733        0.0109595718       -1.4688692607
 H       -12.4130315067       -1.0854923934       -0.2302802741
 H        -9.8468418331        0.5188903586       -1.1042304449
 H       -10.1611802022       -1.2307625273       -1.4773095822
 H        -6.1712558400        0.2238092267        3.1535795902
 H        -7.6729111369       -0.0833141183        3.7367245703
 H        -7.8303384710        2.5891455565        2.7025371737
 H        -6.2175251064        2.4699478053        3.5442885956
 H        -9.2471504021        4.6333289061        7.2456094348
 H        -9.0653205531        6.1380909672        6.4312850822
 H        -7.8801995463        5.7769271658        7.7196202654
 H        -9.1576909532        1.9157823060        7.0034604897
 H        -8.4451567609        3.1845192877        8.0477967354
 H        -7.7893951392        1.6785018046        7.9492609502
 H        -6.0795991534        1.2780657659        5.8514712736
 H        -5.3247564830        2.7793949798        6.8455297085
 H        -5.5152720079        2.7886934798        5.1538379723
 H        -7.9194620828       -2.9127518551        1.3770399572
 H        -8.7773111809       -2.2480163663        2.7047464372
 H        -6.9700948253       -2.1161247533        2.5679728475
 H        -7.6426269547       -2.0807304598       -0.6376730635
 H        -6.2937764771       -1.3623815181        0.0726964885
 H        -7.4045368956       -0.2736435309       -0.8224056190
 H       -14.6563836776       -0.1008242082        0.4546714485
 H       -15.5019326171        1.0547427120        1.3508080563
 H       -14.2465420608        0.0695290463        2.1627763732
 H       -13.7268537677        1.7924411704       -1.4287103863
 H       -13.4044029984        3.2656180772       -0.9102001005
 H       -14.9489204572        2.4505991073       -0.5825789837
 H       -11.4336184205        7.9939549449        3.4609360442
 H        -9.7232320276        8.1653002901        3.6594250279
 H       -10.6160994736        6.8945265998        4.5734039471
 H       -10.5673253512        6.8762887570        0.0850462925
 H       -10.3004487711        8.3202754916        1.1610361197
 H       -12.0355103015        7.6873118665        1.0418538928
 H       -10.5613633840        2.4363548934       -1.4683180201
 H        -9.6256139887        1.7995941900       -2.6450632136
 H       -10.6610911983        3.0228663975       -3.1319671813
 H        -7.6712522082        2.3536906203       -1.3184342735
 H        -6.7534814677        3.8509163369       -2.0309407116
 H        -7.3633454690        2.5780185174       -2.9904191344
 H       -10.1125815488        5.5660607069       -9.5328707716
 H       -10.2879890146        7.1007305871       -8.8022266404
 H       -10.7443241327        5.6679237315       -7.8213866383
 H        -6.9164760159        4.4767319672       -8.8015085183
 H        -7.1581754570        6.1102439233       -9.5945928176
 H        -8.3587454257        4.8310232353       -9.9329802832
 Na      -10.5996626520        2.4548086889        2.8044867793
