117

 C        -6.1099065045        6.4969412742       -7.0479392088
 C        -7.3409615532        6.7063687458       -8.0157934595
 O        -7.6156645930        7.7850685559       -8.4843562840
 C        -8.3967048827        5.3893569828       -8.3035986724
 C        -8.9626639742        4.7406355073       -6.8983912067
 O        -8.9368154382        3.5768732171       -6.6484336988
 C        -9.6837179336        5.5920059971       -5.8583003986
 C       -10.2563599176        4.7235627889       -4.6741747301
 C        -9.7843773792        5.1438625147       -3.2965983400
 O        -9.6070905797        6.2410715092       -2.8429025771
 C        -9.4765821198        3.8196868701       -2.1455394912
 C        -9.3286048012        4.0555480142       -0.6376191106
 O       -10.1220182318        3.9361762370        0.2360019948
 C        -8.0057718170        4.7487252153       -0.0684759004
 C        -8.5033316679        6.1064659264        0.5161738492
 C        -8.9523192436        5.9277295365        1.9348152954
 O        -8.4670734478        4.9972244434        2.5601099645
 C       -10.2683247651        6.7065946450        2.4720422451
 C       -11.5988099684        5.7126785910        2.8076967017
 O       -11.8903804084        5.7829145140        3.9881775854
 C       -12.5151337930        5.1940548478        1.6821291634
 C       -13.6264082668        4.0747715265        2.1503110229
 C       -13.0524449378        2.6783693261        2.0580190579
 O       -12.3733873730        2.2185883432        2.9377319652
 C       -13.4309954113        1.8983553466        0.8060325366
 C       -12.1568766147        1.0397966528        0.4641187845
 O       -11.0855930947        1.5891389675        0.6497347261
 C       -12.3455043587       -0.3856942521       -0.0789961929
 C       -10.9386904100       -1.0149162766       -0.1295203060
 C       -10.2359782997       -1.1776993679        1.1553704688
 O       -10.7172047334       -1.7030948747        2.1088184254
 C        -8.6304464132       -0.7853215197        1.3008578760
 C        -8.3069812150        0.6734134419        1.6723527045
 O        -8.4701456080        1.7430268508        1.0524798043
 C        -7.3513997298        0.9246304202        3.0208577158
 C        -7.0473247531        2.4184681057        3.3864042373
 C        -8.0276458393        2.7153248679        4.4943505282
 O        -9.2383609098        2.4744852406        4.3946203953
 C        -7.3974622857        3.0717247732        5.8951667561
 C        -7.7064692540        4.7524298170        6.0039897296
 O        -7.1425861922        5.5527233363        5.3616057793
 C        -8.9660531423        5.1767226484        6.8668632583
 C        -8.2674555391        2.4281545258        6.9749967105
 C        -5.8835375256        2.6053402024        6.0622725673
 C        -8.0235737084       -1.7002170723        2.4077664086
 C        -8.0147037639       -1.0030585142       -0.0135073153
 C       -14.6636046991        0.9292112934        0.8718155298
 C       -13.6925488886        2.7875682105       -0.5009141201
 C        -9.9463147960        7.5037895765        3.7366658368
 C       -10.8514736379        7.6354537758        1.2908092832
 C       -10.6680059407        2.8819506556       -2.3982324206
 C        -8.1642668235        3.1145213544       -2.7284325540
 C        -9.5336328737        5.8926974816       -9.1470333374
 C        -7.4818569736        4.2094428556       -9.1680426735
 H        -5.8619583243        5.4092879513       -6.8960929175
 H        -6.2960007219        6.8357385492       -6.0305959038
 H        -5.1548445687        7.0192895618       -7.1725485817
 H       -10.5161027179        6.1840365868       -6.3221961405
 H        -9.0392981716        6.4880422607       -5.5096480631
 H        -9.9890732552        3.6689140690       -4.8253603363
 H       -11.3180124750        5.0228704187       -4.6963063197
 H        -7.1565608343        4.7071578235       -0.7419640276
 H        -7.6339531570        4.2267269978        0.7971564334
 H        -9.3794572549        6.3511620665       -0.1730257511
 H        -7.7201015030        6.8213938334        0.2708019718
 H       -11.9386421607        4.7693672955        0.8452439994
 H       -13.0385136365        5.9834318028        1.2603956683
 H       -14.4695113073        4.3284283079        1.4229508741
 H       -13.9417425096        4.1768214410        3.2487926134
 H       -13.0686449268       -0.5281446144       -0.9154283639
 H       -13.0408843336       -1.0179336949        0.5421921395
 H       -10.4164358213       -0.2616875350       -0.6905071125
 H       -11.0320822120       -1.9545896255       -0.6706449095
 H        -6.4959213051        0.3189847708        2.7421481515
 H        -7.6063597596        0.2956920005        3.9193267692
 H        -7.1344037807        3.0210400304        2.4574289654
 H        -5.9969940872        2.6057747469        3.6768290508
 H        -8.7147337518        6.2282149458        7.0412705382
 H        -8.9047469321        4.7443349576        7.8245888966
 H       -10.0604961363        4.9309611066        6.5685787871
 H        -9.2123660133        2.8867389312        6.9475659013
 H        -7.8521324840        2.4338796271        8.0282489109
 H        -8.5279941758        1.4021854419        6.7751262859
 H        -5.7422329973        1.5313700344        5.9367961434
 H        -5.6547077135        2.5810863796        7.1909412195
 H        -5.1159349801        3.3194126130        5.7573381264
 H        -8.0902523322       -2.8029408012        2.2417684718
 H        -8.6490238765       -1.5562014760        3.3361013863
 H        -7.0320941283       -1.4679068213        2.5371865582
 H        -8.3663427029       -1.9270198096       -0.5156255004
 H        -6.9576747557       -0.9861715288        0.1787184013
 H        -8.3129650303       -0.1395045608       -0.6296146282
 H       -14.7240142621        0.2457167644        0.0523853638
 H       -15.5986431867        1.3889608035        1.0307559818
 H       -14.5110736975        0.4404348079        1.7951663712
 H       -14.0853699753        2.4467294910       -1.4375254212
 H       -12.7977467231        3.2334134954       -0.7301212682
 H       -14.0309532505        3.6971445212       -0.1953269828
 H       -10.7741766528        8.0792903796        4.0373240216
 H        -9.0747115603        8.1702363871        3.6847886743
 H        -9.9268830003        6.7277880284        4.4965198389
 H       -10.8300711003        6.9941179557        0.4239715218
 H       -10.2107131773        8.5545827899        1.4661367794
 H       -11.9056254390        8.0353264032        1.3960141550
 H       -10.6995692288        1.9819924510       -3.1189507391
 H       -11.4250773532        3.5426994576       -2.4895729879
 H       -10.8672055235        2.3535774212       -1.4367886529
 H        -7.8218789935        2.3100822053       -2.0660947618
 H        -7.2433523279        3.7761401291       -2.8403014057
 H        -8.4422519655        2.6227792831       -3.6893514269
 H       -10.2768444264        5.1134594152       -8.9281129006
 H        -9.4597618634        5.8707267210      -10.2001966028
 H        -9.8632086264        6.9178429721       -8.8663706915
 H        -6.5033156485        4.1395862622       -8.6443712446
 H        -7.3110769863        4.5035880999      -10.2578008475
 H        -8.0359824083        3.2709997746       -8.9887545249
 Na       -9.9544609336        3.0355092450        2.5062778185
