117

 C        -6.1027875894        5.9685606428       -6.9145474393
 C        -7.2119715186        6.2633535879       -7.9593858705
 O        -7.2790594332        7.2668821077       -8.6774386666
 C        -8.3431757649        5.1556963028       -8.1598276653
 C        -8.8239377823        4.7251113625       -6.7977594445
 O        -8.9797856694        3.5155608281       -6.5105633933
 C        -9.4138964254        5.6918487280       -5.7999209026
 C       -10.2872671044        4.9102484841       -4.7767309167
 C        -9.7189874640        5.1334213843       -3.3885588242
 O        -9.6147498453        6.2210913649       -2.8690427473
 C        -9.5401750270        3.8403139301       -2.6076534074
 C        -9.3969520355        4.2435102873       -1.1184383090
 O       -10.0843057910        3.5488468246       -0.3291634464
 C        -8.2535380821        5.0920942035       -0.5880945835
 C        -8.4609841255        6.2413142966        0.4920232214
 C        -9.1131166482        5.9874088806        1.8026006665
 O        -8.6029218178        5.1782158152        2.5808747160
 C       -10.4008424649        6.8568609099        2.3272014649
 C       -11.5063265969        5.8956736028        2.9151816567
 O       -11.7850096034        5.8172935960        4.0816076482
 C       -12.3722980894        5.1933038155        1.8305601510
 C       -13.4199054441        4.3410906950        2.4126967190
 C       -12.9967880021        2.8886496228        2.1676233796
 O       -12.2927749489        2.3618322637        3.0671896321
 C       -13.4438803352        1.9613362214        0.9766872877
 C       -12.2800214939        0.9081269014        0.6047712206
 O       -11.1477422123        1.2960869850        0.8604873426
 C       -12.4455885950       -0.6431211798        0.3094578054
 C       -11.0612057161       -1.1834345728       -0.0506195543
 C       -10.2415499295       -1.1329447634        1.3124573383
 O       -10.8609843087       -1.3031237708        2.3608211131
 C        -8.6856563100       -0.9797645128        1.3127373971
 C        -8.1215296177        0.6280939245        1.8613528909
 O        -8.5913777091        1.5114818149        1.2182893946
 C        -7.1851746391        0.8714271997        3.0460915391
 C        -6.9654645789        2.3506171027        3.3875300448
 C        -7.9767486202        2.8189670229        4.4117557292
 O        -9.1647070503        2.9241718573        4.1730121892
 C        -7.4539781686        3.0889497945        5.9077219333
 C        -7.8539263943        4.7422722816        6.0423301107
 O        -6.9119199515        5.4564725641        5.7286280850
 C        -8.9768076355        5.3644656229        6.8954240419
 C        -8.4203870346        2.1493910327        6.7529151713
 C        -5.8793830234        3.0422420475        6.2116159550
 C        -8.1939539127       -2.0404649336        2.3408064179
 C        -7.9800363782       -0.9907625459       -0.0997496523
 C       -14.8703666483        1.3489153152        1.3064103779
 C       -13.6191202259        2.8639855310       -0.3368208520
 C        -9.7295624828        7.6003058907        3.5263300683
 C       -10.8918581085        7.8861372078        1.2967104615
 C       -10.6904107149        2.8900530448       -2.7092767785
 C        -8.2810240109        3.0176843240       -2.8859167453
 C        -9.5748644424        5.7786151354       -9.0710150242
 C        -7.6648760441        3.9528833031       -8.8086902613
 H        -6.4197354348        5.2941301932       -6.1977710560
 H        -5.5548460040        6.8397420641       -6.5107070269
 H        -5.2491360606        5.5627882285       -7.3200250177
 H        -9.9667956571        6.3304128789       -6.4663104927
 H        -8.9166802208        6.3945176111       -5.1930678337
 H       -10.2237951003        3.8877439341       -5.1290240179
 H       -11.2388992828        5.3696153047       -4.7461310954
 H        -7.6542254816        5.3597230449       -1.4520320684
 H        -7.5463046050        4.3155647432       -0.1431552846
 H        -8.7969131890        7.0196063660       -0.0607821202
 H        -7.4013339218        6.4110747058        0.7253017634
 H       -11.7042143411        4.6149231020        1.1546847292
 H       -12.7877751009        6.0737364647        1.1736986444
 H       -14.3563057212        4.5322190746        1.9987905710
 H       -13.3263912315        4.5392433362        3.4372350327
 H       -13.1224665087       -0.6922590486       -0.4926343116
 H       -13.0656436809       -1.2351547266        0.9031839955
 H       -10.8151865125       -0.5181498286       -0.9152328876
 H       -11.0888369633       -2.2177975241       -0.4185111846
 H        -6.2723063956        0.2257896901        2.9927164261
 H        -7.7490993096        0.3126912428        3.7547525567
 H        -6.9345591385        2.9708361306        2.5030796861
 H        -5.9327324847        2.3310151918        3.7630922037
 H        -8.7397622841        6.3669252647        7.2261997105
 H        -9.3075758702        4.7221636641        7.7341943825
 H        -9.8108493206        5.4180854952        6.2675726998
 H        -9.4806746996        1.9961728595        6.3466436784
 H        -8.5700296212        2.5848831453        7.7061155743
 H        -7.9330988029        1.1590335353        6.9327697738
 H        -5.4664204378        2.1128058215        5.8410904605
 H        -5.5530382278        2.8850646121        7.1942864960
 H        -5.4367944775        3.9121930379        5.6661504656
 H        -8.5410741936       -3.0276564304        2.0597901047
 H        -8.5187049885       -1.9407728823        3.3200052821
 H        -7.0174458731       -2.1015087634        2.2580990001
 H        -8.4903577533       -1.6942331251       -0.7539577795
 H        -6.9186422094       -1.1111801880        0.0362577658
 H        -8.2196025387       -0.1042750052       -0.6090583786
 H       -15.3625302533        0.9234605396        0.4060868227
 H       -15.4800919445        2.1673063511        1.7532695505
 H       -14.8666726239        0.6112086753        2.1443568034
 H       -13.1797911196        2.2357905358       -1.1437386975
 H       -13.0543677108        3.8950514730       -0.2815138354
 H       -14.5698095225        3.3282235145       -0.6736425359
 H       -10.3833156009        8.2544569059        4.1415203181
 H        -9.0827916607        8.2579298708        2.9819307622
 H        -9.2029819543        6.9005762830        4.2036733145
 H       -11.5763588831        7.4129215858        0.5638414504
 H       -10.1105525767        8.4945094845        1.0421026549
 H       -11.5012975588        8.5158305823        1.9345992392
 H       -11.0908568309        2.9266526489       -3.7097366043
 H       -11.5561520918        3.2199416584       -2.0266127686
 H       -10.4378065631        1.8686174745       -2.7511514755
 H        -8.1511951906        2.1898326728       -2.1998304468
 H        -7.4422250471        3.6444549278       -2.6178053675
 H        -8.1526974243        2.7195489630       -3.9509645723
 H       -10.3264353484        5.0449884977       -9.4257990668
 H        -9.0495067835        6.2007033068       -9.9816336950
 H       -10.0159262106        6.7017263450       -8.6764160719
 H        -7.0956571427        3.3525491468       -8.0797137238
 H        -7.0578079408        4.3618053703       -9.5279320070
 H        -8.4471267011        3.2832065587       -9.1988039164
 Na      -10.0891402445        3.0912220191        2.0413429469
