117

 C        -5.9822155205        5.5030357701       -6.8886096548
 C        -6.9783147393        5.9096514074       -7.9728622967
 O        -6.9270494343        6.8362931801       -8.6921284529
 C        -8.2649012784        4.9075418333       -8.2408213653
 C        -8.7371583043        4.5289343460       -6.7381411847
 O        -8.8548008471        3.4056321574       -6.3561888775
 C        -9.4289887255        5.6954555855       -5.9758405673
 C       -10.5745209745        5.4849397329       -4.8235103485
 C        -9.8779424066        5.1705211829       -3.4406992381
 O        -9.5015282775        6.2142582758       -2.9073780091
 C        -9.5113964503        3.8471473244       -2.7028047659
 C        -9.3556217889        4.1564666511       -1.1665911823
 O       -10.2131836524        3.8948437512       -0.3840707572
 C        -8.2618466766        5.0868434802       -0.6551176024
 C        -8.7797869115        6.3431867949        0.1364003645
 C        -9.3338187193        6.1013302129        1.5986728708
 O        -9.0014182594        5.0682752284        2.1312750458
 C       -10.2902635579        7.1179963302        2.2582008181
 C       -11.4132613341        6.0653070192        2.8717641058
 O       -11.4293285613        5.9017914002        4.0566604694
 C       -12.4021861374        5.5277428177        1.8238095020
 C       -13.3706930629        4.4402050424        2.4506112471
 C       -12.8371338094        2.9375984710        2.3983719348
 O       -12.1408525740        2.4479044177        3.1774554713
 C       -13.5031236709        1.9787131975        1.2265976102
 C       -12.3651555174        0.9148069665        1.0255620841
 O       -11.1671886247        1.2132334510        1.0924250847
 C       -12.6645492369       -0.5075106054        0.4001560867
 C       -11.2676363877       -1.2358117424        0.3899301142
 C       -10.2587341568       -0.9205799567        1.5425551409
 O       -10.6463603228       -0.8098871531        2.6855395293
 C        -8.6997845962       -1.0406013539        1.3975568965
 C        -8.1626767333        0.3590371513        1.8849736171
 O        -8.5114089322        1.3031891864        1.1856615642
 C        -7.2972610319        0.5755866104        3.1206206210
 C        -7.0308926743        2.0879880101        3.3779994958
 C        -7.9643781566        2.8176644430        4.3848730184
 O        -9.0205140041        3.3204064745        3.9757806771
 C        -7.5303150888        3.2008809603        5.9241149948
 C        -7.7892597008        4.8179142364        6.1602496348
 O        -6.8305119286        5.5625876448        6.0431551864
 C        -9.1917802098        5.2348521299        6.6562469487
 C        -8.3521759889        2.1329030014        6.8834109528
 C        -6.0636814138        2.8222035613        6.2284822835
 C        -8.1057715122       -2.2844062403        2.1457460772
 C        -8.1192367309       -1.2341234666       -0.0483228489
 C       -14.9611022747        1.4678514995        1.7627595127
 C       -13.6063629105        2.7161500559       -0.0372496602
 C        -9.5057686748        7.7920850748        3.4090444252
 C       -10.9132232687        8.1918116080        1.3378069359
 C       -10.7379553717        2.8013080226       -2.8768732833
 C        -8.3670510278        3.3497382538       -3.4323614683
 C        -9.4104781113        5.5657778696       -9.1234933974
 C        -7.6703288070        3.7385536582       -9.0809977644
 H        -6.4212806153        5.7855894641       -5.8619514012
 H        -4.9905649621        5.8786120296       -7.0966254620
 H        -5.6419589618        4.3931381913       -6.6847424173
 H        -9.8375458395        6.4883120658       -6.6452238108
 H        -8.6790617948        6.2736473397       -5.3284558180
 H       -11.3074075790        4.7899669713       -5.2673878889
 H       -10.9764460300        6.5711133359       -4.7523119252
 H        -7.6971777001        5.4105692826       -1.5573022612
 H        -7.4987259089        4.4976310101       -0.2145487335
 H        -9.4630476112        6.7507851546       -0.7336500638
 H        -7.8944908804        6.9683638379        0.1560081357
 H       -11.7955810769        5.2248672687        0.9730458990
 H       -12.9193694153        6.3913835866        1.5679401852
 H       -14.2833609714        4.3514260968        1.8142822273
 H       -13.5041596570        4.8297679239        3.5131874501
 H       -13.4587926939       -0.7680183870       -0.3455247273
 H       -13.3470458101       -0.9963684653        1.1841153296
 H       -10.8052160036       -0.8743381212       -0.5183778643
 H       -11.3035034907       -2.3344207454        0.2422114948
 H        -6.4061037634        0.0023050697        3.0116962926
 H        -7.9214203569        0.0916507385        3.9640905276
 H        -7.1517798904        2.6789969130        2.4354760289
 H        -5.9473330153        1.9738191796        3.5933991122
 H        -9.2897106851        6.3148384305        6.9030256826
 H        -9.1769114625        4.8018701944        7.6681195708
 H       -10.0867618689        4.9339886642        6.0469810327
 H        -9.3760328581        2.2824403414        7.0185170576
 H        -7.9641429262        2.1496665083        7.9475997789
 H        -8.1097163307        1.1796044337        6.4615648951
 H        -5.7695312766        1.8425446231        6.6125357822
 H        -5.8090197896        3.3755069117        7.1532452271
 H        -5.4253570957        3.0015867750        5.3898766199
 H        -8.1672046804       -3.1297948852        1.4801347982
 H        -8.5519133889       -2.5853085728        3.1556482988
 H        -7.1177460755       -2.1765118253        2.3550264874
 H        -8.1209388493       -2.2726946637       -0.3080581658
 H        -7.1017902170       -0.8085770237        0.0565405951
 H        -8.6667097498       -0.8205568784       -0.9565796010
 H       -15.2506104759        0.8276566408        0.9206601661
 H       -15.7420707344        2.2245003276        1.9366456389
 H       -14.9043505822        0.7779575515        2.6084155964
 H       -13.5824931735        2.0087723118       -0.8302011953
 H       -13.0554091902        3.5989704313       -0.2207726525
 H       -14.6402306587        3.0981039109       -0.0712519382
 H       -10.3009817123        8.3366789957        3.9142447113
 H        -8.8469966044        8.5881844659        2.9879182299
 H        -9.0263547214        7.1398167034        4.0953517521
 H       -11.3733705967        7.7583309221        0.4896055383
 H        -9.9631223864        8.7345783256        0.9086625209
 H       -11.6632047607        8.7644021183        1.8447405403
 H       -10.8080944886        2.4945363629       -3.8897738314
 H       -11.6809776476        3.1402439605       -2.5440491594
 H       -10.3965065600        1.8324076943       -2.4443930728
 H        -7.9346261152        2.3755011466       -3.0501243158
 H        -7.4986645610        3.9551685992       -3.5436355065
 H        -8.8140645043        3.3258874040       -4.3464406924
 H       -10.0597445595        4.8537884864       -9.6060197675
 H        -8.8697329445        6.1375239290       -9.8500140331
 H       -10.0635868059        6.2711066154       -8.6234852092
 H        -7.2645485953        2.9976201208       -8.4367036074
 H        -6.9012537183        4.3444990933       -9.6697322333
 H        -8.3305010148        3.2804380665       -9.7571311209
 Na      -10.1071824468        3.0800386922        1.8031292147
