117

 C        -5.9232606614        5.0259384580       -6.9231981220
 C        -6.8813940068        5.5864479243       -8.0337760543
 O        -6.5924186402        6.5809460516       -8.6761989869
 C        -8.2141471357        4.7762941670       -8.3316566394
 C        -8.8873558175        4.4507875811       -6.9018775168
 O        -8.8748790863        3.3137545361       -6.4136313011
 C        -9.4036390761        5.6023020362       -6.0889932685
 C       -10.4807734307        5.2626597273       -5.0246563913
 C        -9.8235308025        5.5357526496       -3.6356101649
 O        -9.5954602503        6.5975842124       -3.1209040698
 C        -9.5993013567        4.0544949010       -2.7885793558
 C        -9.5205498663        4.2824162732       -1.3682114746
 O       -10.5286962389        4.0349816688       -0.6654737372
 C        -8.3680177931        5.1451958026       -0.9208688154
 C        -8.9540716408        6.4209714019       -0.1762681920
 C        -9.3760946900        6.2453970398        1.1780406426
 O        -9.2308451114        5.1419127597        1.7340397718
 C       -10.2613024670        7.2225163769        2.0829826643
 C       -11.3203078256        6.2529500535        2.7591975713
 O       -11.1955275910        6.0518705649        3.9468403810
 C       -12.5940015331        5.6535645841        1.9242281804
 C       -13.5117272040        4.6885552045        2.6138134476
 C       -12.8498328185        3.2370724315        2.5560210933
 O       -11.9890437843        2.8621396241        3.3859386011
 C       -13.4289529967        2.0845878371        1.5824820599
 C       -12.2753956578        1.0155108437        1.1793432579
 O       -11.1593981240        1.3843703492        1.0096095203
 C       -12.6153015490       -0.5427489406        1.0937534705
 C       -11.3604263687       -1.3873744522        0.7492422274
 C       -10.2977725583       -1.0214045494        1.8033586349
 O       -10.5131503345       -0.7525552176        2.9558109636
 C        -8.7269765631       -1.1055859753        1.4350916525
 C        -8.2948098790        0.2821697402        1.8319215406
 O        -8.2861974515        1.2076004468        1.0680021267
 C        -7.8129587241        0.4259227315        3.3469441584
 C        -7.0559481671        1.8331105210        3.6041204626
 C        -7.9228688197        2.7588837103        4.4596527138
 O        -8.9939021323        3.1271711848        4.0833106925
 C        -7.5311218705        3.1306948123        5.9563420391
 C        -7.8221217727        4.6849013744        6.1657128733
 O        -6.8912777274        5.4264287498        6.1942459958
 C        -9.3004154194        5.0231864982        6.3042149914
 C        -8.4063666880        2.2446594093        6.8063524456
 C        -6.0171594244        2.7408412081        6.1182896482
 C        -8.1017743419       -2.1903335694        2.2635141091
 C        -8.5576673125       -1.3194815084       -0.0176277035
 C       -14.5954747732        1.3680666080        2.2059073773
 C       -13.8143190705        2.6857453685        0.0966866687
 C        -9.3465290429        7.7939587916        3.2259188093
 C       -10.8872932761        8.3876810484        1.2371219983
 C       -10.6625832545        3.0388585903       -3.0882580910
 C        -8.1728763285        3.6395610740       -3.4018305388
 C        -9.0979934380        5.6121156058       -9.2634800285
 C        -7.7679706590        3.3059405319       -8.8428912125
 H        -5.5642535912        5.6978778457       -6.2221079227
 H        -5.1480933502        4.4104635527       -7.3336566831
 H        -6.3680621030        4.3459562397       -6.3003541789
 H        -9.8865959927        6.4590947447       -6.6106970704
 H        -8.5353453228        5.9938094373       -5.6005494521
 H       -10.9281026015        4.2864881668       -5.2517749255
 H       -11.1905709566        6.0059212500       -5.1337710375
 H        -7.6956762131        5.3271779926       -1.7425612373
 H        -7.6645470800        4.5762207401       -0.2075706408
 H        -9.6442858764        6.8955702414       -0.7794911760
 H        -8.0534907834        7.0747663375       -0.1008202617
 H       -12.1641520310        5.1155320681        1.0615660907
 H       -13.1288827007        6.5916746481        1.5391202179
 H       -14.4842830823        4.6238664551        2.0878950037
 H       -13.6117296870        4.8999262896        3.6831543027
 H       -13.4019000726       -0.7458183952        0.4005219449
 H       -13.2147973036       -0.9013052467        1.8994290138
 H       -11.1599012019       -1.4344271687       -0.3703900009
 H       -11.6068371510       -2.4074161146        1.0202204117
 H        -7.0807044460       -0.4492458946        3.4617153054
 H        -8.6005746012        0.3262338080        4.0410610179
 H        -6.9438549178        2.3197473261        2.6372035779
 H        -6.1246900628        1.4753167036        3.9664408237
 H        -9.4153229174        6.0337440768        5.9451076695
 H        -9.6958906123        5.1060433508        7.2948824753
 H        -9.8965385397        4.4235663913        5.6158665828
 H        -9.4087362954        2.6287607448        6.5059637827
 H        -8.3738474425        2.4602745264        7.8354857752
 H        -8.3129769486        1.1794099287        6.5669159451
 H        -5.9176560669        1.6892527385        5.7828294118
 H        -5.6451385711        2.6985851578        7.1439632578
 H        -5.3279360797        3.1428888399        5.3565189752
 H        -8.5209322738       -3.2174335766        2.1143407422
 H        -8.1302374366       -1.8991577627        3.2680475670
 H        -6.9729855489       -2.2918853954        2.1288700031
 H        -9.2512227416       -2.1206897385       -0.4029351545
 H        -7.5310326398       -1.5620886913       -0.2725552608
 H        -8.8051158475       -0.4444194560       -0.5524403537
 H       -14.8594429791        0.4746154755        1.6605489910
 H       -15.3954487281        2.0672288458        2.0445375998
 H       -14.4892614704        1.0127327526        3.2197408487
 H       -14.7387538412        2.1746411536       -0.3408985279
 H       -12.8996913291        2.5611547397       -0.5363271852
 H       -14.0957612389        3.7227493070        0.0091573575
 H        -9.7992585302        8.4818592050        3.9203407177
 H        -8.4545459671        8.1992658508        2.7995087227
 H        -8.9343783941        6.8575423242        3.7280683418
 H       -11.2839379686        8.0949493529        0.1907117772
 H       -10.1263955588        9.0765127517        1.0111212759
 H       -11.7881773466        8.7189372265        1.8388690266
 H       -10.4744995551        2.6262592204       -4.1970840723
 H       -11.6734026577        3.5112847478       -3.1464268455
 H       -10.6909902664        2.2428718834       -2.3584078083
 H        -7.7030803663        3.0390512492       -2.6931295816
 H        -7.4427273045        4.5079043366       -3.5385294761
 H        -8.2126458751        3.1975469348       -4.4807540182
 H       -10.0656052477        5.1076941205       -9.3584328226
 H        -8.6305825293        5.7424487725      -10.2505973707
 H        -9.4206532378        6.5376792683       -8.7711953903
 H        -7.0563291711        2.9490538253       -8.0305140150
 H        -7.4216515661        3.2574696134       -9.8515096776
 H        -8.7016998040        2.6464395011       -8.7348200112
 Na       -9.7858562876        2.9567627272        2.0024160482
