117

 C        -5.7434963119        4.5994683838       -6.9708051597
 C        -6.6836675965        5.2430809907       -7.9568579320
 O        -6.4397054024        6.2764445746       -8.5910440778
 C        -7.9599328050        4.4707513409       -8.3536476436
 C        -8.8731401830        4.4581461412       -7.0832848936
 O        -9.1266551050        3.4183784190       -6.5052167131
 C        -9.3783408384        5.7703710320       -6.4626970905
 C       -10.5500993227        5.4765959832       -5.4680430829
 C        -9.9589444764        5.4391027074       -3.9737935858
 O        -9.7665394788        6.5313413707       -3.4634294255
 C        -9.6762894720        4.1498015401       -3.0422066946
 C        -9.7284337743        4.6797597993       -1.5643536857
 O       -10.2931322584        4.1305955014       -0.6531688544
 C        -8.5558080560        5.6498814673       -1.0936567372
 C        -8.7650516032        6.6909675742        0.0215086167
 C        -9.6049283269        6.1981766388        1.2307974216
 O        -9.2090501020        5.1472821663        1.6536261440
 C       -10.3958546374        7.1977405412        2.0532809720
 C       -11.4896329199        6.3402183175        2.7680039504
 O       -11.4193713536        6.0953321725        3.9566960264
 C       -12.5540693098        5.8362250497        1.7673904317
 C       -13.3552583606        4.7738324261        2.6127753725
 C       -12.5878050076        3.4399031223        2.5478680243
 O       -11.6805679471        3.1462590130        3.2873289495
 C       -13.2877813774        2.3184683135        1.7509309719
 C       -12.2880185782        1.1106872867        1.5424053500
 O       -11.2172809609        1.4036404107        0.9209972470
 C       -12.6411612619       -0.2855861104        1.7849183967
 C       -11.5693152221       -1.2257240075        1.2131634476
 C       -10.3539655102       -1.0887797306        2.1860452620
 O       -10.5900075620       -1.0040395547        3.3891637190
 C        -8.8116910402       -1.2050852761        1.4650767419
 C        -8.1930576933        0.1546804674        1.8225878675
 O        -7.9976277822        1.0830242048        0.9882813775
 C        -8.0175489835        0.5016094468        3.2667448396
 C        -7.1981339575        1.7337833813        3.5651864199
 C        -7.9280969808        2.6793072776        4.5801971926
 O        -9.0700718448        3.0345965975        4.2102688998
 C        -7.5609721087        2.9955460979        6.0932885749
 C        -7.8854622760        4.4418018264        6.2532794451
 O        -6.9216921690        5.1934536333        6.2325809842
 C        -9.2159517690        5.2203198385        5.9816753690
 C        -8.2955087990        1.9636092469        6.9327861140
 C        -6.0283812410        2.9047551104        6.5122997492
 C        -8.1584545431       -2.4447300385        2.1568147168
 C        -8.7422716386       -1.4512901375       -0.0808096303
 C       -14.4737756122        1.7145236333        2.7024070513
 C       -13.9430756628        2.7105478972        0.4223919379
 C        -9.2574690276        7.8278409841        2.8343420382
 C       -10.9976420593        8.3904906721        1.1198641191
 C       -10.5481499140        2.9619626537       -3.4664818033
 C        -8.2710786932        3.7008466855       -3.1534703662
 C        -8.8413623781        5.3579117401       -9.3824622885
 C        -7.8719143313        3.0620479204       -8.9803516104
 H        -4.6620644995        4.9438763481       -7.0544027232
 H        -5.7098818158        3.4766933005       -7.1453683362
 H        -5.8405719435        4.7327654467       -5.8595946603
 H        -9.7770401668        6.4297704484       -7.1690267400
 H        -8.5321772960        6.2606856801       -5.9187565712
 H       -10.8610971876        4.4787821206       -5.7650215918
 H       -11.5117097366        6.1588112018       -5.5490121680
 H        -8.1128530235        6.1563179312       -1.9892992654
 H        -7.7561451846        5.0616747996       -0.7643070477
 H        -9.2252359385        7.5580555506       -0.5786876349
 H        -7.7403248232        6.9554027969        0.1399941960
 H       -12.0802939106        5.4636720183        0.8276282671
 H       -13.1425963960        6.7000088017        1.5376127623
 H       -14.3472798041        4.7269496282        2.2557640590
 H       -13.3896025593        4.9525984280        3.6827278468
 H       -13.6823648836       -0.5197936753        1.4777973152
 H       -12.8867282325       -0.5887217322        2.8444007121
 H       -11.2948258182       -0.8931184121        0.2377389012
 H       -11.9682180171       -2.2686232696        1.1092433719
 H        -7.6268854169       -0.3906364858        3.6155905479
 H        -9.0304920405        0.7943920706        3.6939951840
 H        -7.0083601332        2.2012057545        2.5824950290
 H        -6.3341634921        1.2759208180        4.0762482732
 H        -9.1326160742        6.2192914447        5.5739305965
 H        -9.6621501828        5.4415434526        6.9826453540
 H        -9.8917877968        4.6634613860        5.4275621069
 H        -9.0023712161        1.3249320313        6.3970059898
 H        -8.8156430294        2.4256605455        7.8119702411
 H        -7.4752355270        1.3242672348        7.2619933607
 H        -5.5919173406        1.9246655031        6.3899145442
 H        -5.9920471015        3.2864490634        7.5287684053
 H        -5.3332587267        3.4044598200        5.8619690536
 H        -8.4525968587       -3.3053907287        1.6723668255
 H        -8.3344314262       -2.5188839209        3.2350473830
 H        -7.0639695436       -2.4209808010        2.1072702844
 H        -9.2439582942       -2.2953957035       -0.4949400854
 H        -7.7205269522       -1.5901999017       -0.4641864203
 H        -9.0360797090       -0.4763278335       -0.5793521933
 H       -15.1663703100        0.9622218813        2.2604515617
 H       -15.1107974099        2.4844155591        3.1999373785
 H       -13.8483012159        1.0671695815        3.3626784739
 H       -14.9039501434        2.3063956901        0.2603924325
 H       -13.2639944843        2.6070078233       -0.4764677303
 H       -14.3343077857        3.8024329090        0.5263174670
 H        -9.7178943521        8.5595825135        3.5379651981
 H        -8.4647313739        8.2833407740        2.2056300312
 H        -8.7335753761        7.0875163459        3.3389814988
 H       -11.7655502590        8.0123556612        0.4982716754
 H       -10.3522374948        8.8275226154        0.3711489987
 H       -11.4032440293        9.1095759620        1.7471962169
 H       -10.4138703974        2.5624712166       -4.3525731935
 H       -11.6015014834        3.2930743165       -3.4580708098
 H       -10.5779547301        2.3334194606       -2.5424989850
 H        -8.0091443090        2.9226074632       -2.3212961013
 H        -7.6333503472        4.5365045575       -2.9845915712
 H        -8.0219710676        3.4094497676       -4.1039847200
 H        -9.9086114731        5.1213334974       -9.2788591142
 H        -8.5050644933        5.2214570150      -10.4121457815
 H        -8.8831228695        6.3875816280       -9.0547823635
 H        -6.9713630956        2.5678111019       -8.7987220318
 H        -8.1087004259        3.1412130760      -10.0581458514
 H        -8.7198034418        2.5867201569       -8.5936428167
 Na       -9.6639314871        2.9036271472        1.7997094258
