117

 C        -5.5366736501        3.6085008790       -7.3232337788
 C        -6.4818661082        4.5028643734       -8.0556983339
 O        -6.0165988251        5.6557293604       -8.1991450560
 C        -7.7998489418        4.0728459586       -8.6959509466
 C        -8.9125757053        4.1979771955       -7.4247329049
 O        -9.2023194916        3.1652699249       -6.8305329601
 C        -9.5935282053        5.5908608543       -6.8905381084
 C       -10.4851662416        5.3358696218       -5.7303719640
 C        -9.9582375683        5.6740097875       -4.1975038246
 O        -9.8385051354        6.8349219055       -3.9027864215
 C        -9.6780744558        4.4930651477       -3.3567117691
 C        -9.3452179931        4.8707922592       -1.8307594911
 O       -10.1085940929        4.3520081484       -1.0135433263
 C        -8.3171487397        5.8519376916       -1.1720213240
 C        -9.1216714111        6.8745435177       -0.4643901082
 C        -9.5364624825        6.5743435764        1.0357092040
 O        -9.1929316780        5.4849118045        1.4513111603
 C       -10.4298575922        7.6693572369        1.8994187113
 C       -11.5155968220        6.9122333345        2.8476240097
 O       -11.3579694742        6.7742578096        4.0544152204
 C       -12.8218064809        6.3381377370        2.1163443410
 C       -13.3274253689        5.0701926977        2.9525989798
 C       -12.5809933524        3.8398535405        2.5885066265
 O       -11.4282470830        3.9654637188        2.2530995391
 C       -13.3818988249        2.3741433679        2.3999694085
 C       -12.3885642671        1.1940338908        2.0624860485
 O       -11.3784200386        1.3345379491        1.3324002754
 C       -12.6268600232       -0.2429111411        2.6399189785
 C       -11.8503661215       -1.2816480587        1.9335923506
 C       -10.4276648811       -1.3746459718        2.6866031037
 O       -10.2830383984       -1.6823140337        3.8357576536
 C        -9.0875794234       -1.3858856283        1.7446371377
 C        -8.3911965682       -0.0267501505        2.2013040208
 O        -8.2832289166        0.9218787199        1.3631852305
 C        -7.5741601372       -0.0286993541        3.5271924731
 C        -6.9707928380        1.3331472094        3.8030855356
 C        -7.9130754414        2.3233079884        4.4913502457
 O        -8.8704763346        2.8045088412        3.8197499621
 C        -7.7116099026        2.8558801006        5.9442951963
 C        -7.8623682791        4.4379623292        6.0865664153
 O        -6.9876286094        5.1532306836        6.4693484382
 C        -9.2160162835        5.0318836151        6.2505642339
 C        -8.5643666041        2.2040062215        7.0369693974
 C        -6.2485772621        2.6424726515        6.4224202735
 C        -8.2331103069       -2.6161806512        1.9125874504
 C        -9.3363618595       -1.3110133836        0.2484832835
 C       -14.3976179751        1.8843930284        3.5444756088
 C       -14.1958635315        2.7418206078        1.0483525233
 C        -9.2669884128        8.2404491503        2.7636920302
 C       -11.0513261221        8.7080639498        0.9655890762
 C       -10.8931796219        3.5670675190       -3.3438008609
 C        -8.3266345099        3.8576162701       -4.0075313513
 C        -8.2346348546        5.0421425236       -9.8818125414
 C        -7.8131843374        2.5477601005       -9.0014902348
 H        -5.6189037947        2.5420910535       -7.4506695488
 H        -5.5284510531        3.8120184904       -6.2197085974
 H        -4.5390128124        3.8621073604       -7.4938347249
 H       -10.2547382118        5.8802771404       -7.6370739212
 H        -8.8663616880        6.3873648319       -6.7143923149
 H       -10.7621286662        4.2935735248       -5.8022815562
 H       -11.5598761654        5.7324578322       -5.7434739455
 H        -7.7084165864        6.3364174261       -2.0217428441
 H        -7.7588220442        5.2640209539       -0.4927835848
 H        -9.8816014822        7.1058378308       -1.2681307134
 H        -8.5321254501        7.7800359308       -0.4594072468
 H       -12.4536091124        6.2212097581        1.0721769607
 H       -13.5171066728        7.2231861019        2.0881380327
 H       -14.3642675119        4.9308019672        2.9414022884
 H       -13.1076011388        5.3105383308        3.9673478792
 H       -13.6822329035       -0.5334983590        2.6370389437
 H       -12.3825437106       -0.2472623814        3.7209275389
 H       -11.7840032127       -1.1217491167        0.8842765958
 H       -12.2041446065       -2.3358470339        2.0009303175
 H        -6.7865736392       -0.6753825894        3.4475853124
 H        -8.3388152038       -0.2470944212        4.3045692691
 H        -6.7999103535        1.7763712738        2.8197179742
 H        -6.0492501900        1.0893558874        4.3394787545
 H        -9.4315268956        5.9318881518        5.7175237065
 H        -9.0240076841        5.3725377263        7.2909981380
 H       -10.0126725752        4.3940381936        6.2977622065
 H        -9.5798472768        1.9291697842        6.6976803032
 H        -8.5040898435        2.8548225194        7.9057197746
 H        -8.0137201577        1.3202338022        7.3532870932
 H        -6.1099565768        1.5336842948        6.5322563483
 H        -6.0847928671        3.1415740494        7.3499374211
 H        -5.3938793824        3.1039751437        5.8967456070
 H        -8.7433216079       -3.4382570873        1.5364169184
 H        -7.9419621360       -2.9088738902        2.8748839277
 H        -7.2805217373       -2.5389420973        1.2462545518
 H        -9.9060811465       -2.1084197018       -0.0859713304
 H        -8.4400607357       -1.5318045317       -0.3248566718
 H        -9.6634761470       -0.3025117253       -0.0600916289
 H       -14.8108060723        0.9327649815        3.2856505391
 H       -15.2742390243        2.5498567093        3.6287720426
 H       -13.8537433491        1.8997598897        4.5368346761
 H       -14.3045474186        1.7165165850        0.5655250046
 H       -13.6590894491        3.2730377593        0.1562777072
 H       -15.2337422272        2.9790622784        1.4122595571
 H        -9.6279880321        9.0167020494        3.5279315596
 H        -8.6286917468        8.7220878992        1.9937732409
 H        -8.6742110832        7.5828394197        3.3587732546
 H       -11.5458709931        8.2181258945        0.1409011293
 H       -10.4054889077        9.3648284556        0.6672697059
 H       -11.7768983803        9.3111870563        1.4246242331
 H       -11.0585595989        3.1989074979       -4.3781736491
 H       -11.8696226594        3.8254754769       -2.8571720646
 H       -10.6245555550        2.8456274721       -2.6228098910
 H        -7.6849246812        3.2821088318       -3.2947280626
 H        -7.8394586300        4.6821151239       -4.4998847965
 H        -8.5438406297        3.1021295073       -4.7713289453
 H        -9.2532174114        4.8202679724      -10.2847520382
 H        -7.5032497716        5.1924384232      -10.7358383112
 H        -8.2630338872        6.0126040265       -9.3707682680
 H        -8.2722127138        1.9194847923       -8.2046518819
 H        -6.8562800095        2.1174692334       -9.1629111457
 H        -8.3704214929        2.5954132104       -9.9529848194
 Na       -9.4758138769        2.9151823152        1.3358427783
