117

 C        -5.6352313791        3.2359035822       -7.3233159684
 C        -6.4904994867        4.2265434837       -7.9543667468
 O        -6.0914988231        5.3672650628       -7.9512342712
 C        -7.7542499482        3.9153683234       -8.6761891775
 C        -8.8149951392        3.9735957455       -7.4035292233
 O        -9.4105326580        3.0214720727       -6.9820909768
 C        -9.0949907145        5.4483207435       -7.0262178730
 C       -10.3422859318        5.4688536961       -6.0079197007
 C        -9.9741467904        5.7160236403       -4.5271687846
 O        -9.7725838452        6.9013401868       -4.2746277029
 C        -9.7165095674        4.5467355244       -3.3289213807
 C        -9.5264718812        4.8221743396       -1.7260550129
 O        -9.8011036147        3.9728871758       -0.9209016595
 C        -8.5473867145        6.0044353098       -1.4275759784
 C        -9.3172650087        7.0825885950       -0.4671469168
 C        -9.6881124672        6.6100753964        0.8870343574
 O        -9.2011919888        5.6586888701        1.4679399238
 C       -10.4290529132        7.7706090558        1.7317357961
 C       -11.3571473738        7.0264954303        2.7511158039
 O       -11.0300764067        6.9983876573        3.9049329957
 C       -12.8087314087        6.4459549076        2.3204345485
 C       -13.2633057186        5.2054686305        2.9819063674
 C       -12.5813318608        3.8396678088        2.4450604992
 O       -11.5458019669        4.0677185129        1.8349280450
 C       -13.3484233682        2.5134496955        2.5461887010
 C       -12.1986781080        1.2895030097        2.3346190933
 O       -11.2553560926        1.4406968769        1.6584230787
 C       -12.5639107823       -0.0183461065        3.0022184358
 C       -11.9309260015       -1.2732427528        2.3167843717
 C       -10.3893024742       -1.3569839741        2.7909654646
 O       -10.1579737660       -1.7565804244        3.9449942501
 C        -9.1264558460       -1.3682518846        1.8262103563
 C        -8.3676641687       -0.0257605260        2.2832846310
 O        -8.6781110217        1.0060161428        1.7501255684
 C        -7.5835918862       -0.1681414200        3.6137950288
 C        -6.9525952542        1.2580104136        3.9301985902
 C        -7.9143149954        2.3584600598        4.4967672058
 O        -8.8151186974        2.8466273542        3.8539119066
 C        -7.6947957606        2.7537760403        5.9644956776
 C        -7.9203840247        4.3226394303        5.9536785604
 O        -7.0046806712        5.1369780158        6.1288961634
 C        -9.2716954004        4.9591672712        5.8787026310
 C        -8.7462568008        1.7497995278        6.5684109086
 C        -6.2539173352        2.4537637388        6.4549024273
 C        -8.3744331461       -2.7263378599        2.0417790631
 C        -9.6501986393       -1.1919492443        0.4174416561
 C       -14.0532488144        2.4455780846        3.9106072518
 C       -14.3858248014        2.3297525442        1.2916429154
 C        -9.2072239594        8.3567306290        2.4397824634
 C       -11.1303810142        8.9390725796        1.0208595198
 C       -10.7752448934        3.4276801965       -3.4735969788
 C        -8.3852401999        3.8849008816       -3.6113526285
 C        -8.0144247248        4.9404281810       -9.7456154462
 C        -7.8893735249        2.4701149231       -9.4347591521
 H        -6.1575895388        2.4081136331       -6.7449719556
 H        -4.7309277881        3.6257379493       -6.7905724676
 H        -5.0299818542        2.7025414450       -8.1926888795
 H        -9.4957054266        6.1339488465       -7.8611016847
 H        -8.1005492296        5.8063776135       -6.7080155662
 H       -11.1101418062        4.6615391710       -6.1375353755
 H       -11.0427874941        6.2686787185       -6.1300248371
 H        -8.3247765703        6.3643598710       -2.3715808793
 H        -7.7174373932        5.5440118072       -0.8313124708
 H       -10.2560233982        7.3870559993       -0.9082573908
 H        -8.6844231484        8.0217164066       -0.4562030480
 H       -12.8735719174        6.4326544829        1.2543957530
 H       -13.3091430287        7.3167768807        2.6043956574
 H       -14.4043312949        5.1547235455        2.8973150689
 H       -13.0899903973        5.3058745350        4.0855032918
 H       -13.6564038002       -0.2361757156        3.1918053024
 H       -12.0587758651        0.0340185303        4.0542791385
 H       -12.0445356347       -1.3892098131        1.2003616766
 H       -12.3572392133       -2.1788998710        2.7131959264
 H        -6.6084306466       -0.7334140108        3.3118358233
 H        -8.2575995455       -0.6159504160        4.3213721049
 H        -6.5915458102        1.6888151984        2.9389511717
 H        -6.0504268014        0.9816002351        4.5618425482
 H        -9.0697628401        5.8482302568        5.2411910178
 H        -9.6535121445        5.3568532224        6.8240382635
 H       -10.0982223102        4.2608290686        5.5185833063
 H        -9.6075645189        2.2730827809        6.9033183734
 H        -8.2351406563        1.0385160901        7.2573822501
 H        -9.1098451696        1.1306162330        5.7429750044
 H        -6.0311795527        1.4157239462        6.5914893861
 H        -5.9010761637        2.8840935684        7.4227591384
 H        -5.5752964834        3.0126488881        5.8554443075
 H        -8.7798733500       -3.6785153299        1.6383464372
 H        -8.2680500820       -3.0072874746        3.1331140443
 H        -7.4796354764       -2.5980929906        1.5933879785
 H       -10.1638912360       -2.0897169838       -0.0358312433
 H        -8.7840983087       -1.0513691912       -0.2663530072
 H       -10.1832798502       -0.2338177352        0.3884363676
 H       -14.9363941353        1.7306785358        3.7772442398
 H       -14.3287095248        3.3858316059        4.4475460308
 H       -13.2997927985        2.0416352751        4.5930382875
 H       -15.0531709009        1.5360119345        1.4392614437
 H       -13.8381397931        1.9687739856        0.5076880210
 H       -14.9061777445        3.2550061965        1.1471384268
 H        -9.4754821191        9.1181703205        3.1101069048
 H        -8.4636773367        8.7422101346        1.7324715509
 H        -8.8411213715        7.6191115363        3.1537002642
 H       -12.2360567569        8.8204188635        1.0319877768
 H       -10.7303902549        9.2078835371       -0.0519058781
 H       -11.0003999562        9.9496749258        1.4364130894
 H       -10.8459881672        3.0370736078       -4.4363120480
 H       -11.6627384543        3.9773740892       -3.2378231636
 H       -10.7779151049        2.6293266193       -2.6384951012
 H        -8.3750575222        2.9962741994       -2.9510076876
 H        -7.5190801609        4.5334977692       -3.5931230267
 H        -8.5071165725        3.3982642534       -4.5359375927
 H        -9.0246642625        4.7013859537      -10.0572390860
 H        -7.4100824909        4.7473074852      -10.5882450382
 H        -7.8275592979        6.0095918907       -9.5362393091
 H        -8.3116110604        1.8954149312       -8.6883762408
 H        -6.9036485122        1.9742663459       -9.6574405703
 H        -8.4447211827        2.5576800206      -10.3167747430
 Na       -9.5236308836        3.3189203999        1.3283715842
