117

 C       -14.6530351672       -0.8342088070        4.4178822251
 C       -13.4989042450       -1.3368173707        3.6177137901
 O       -12.3929600059       -1.3614611627        4.1833262462
 C       -13.4591747536       -1.7238127045        2.0761766042
 C       -12.0928035326       -1.2079692367        1.4926355022
 O       -12.0528513369       -0.2270727733        0.8005664092
 C       -10.7704104630       -2.0717191774        1.8858672515
 C        -9.5577849548       -1.2296758354        1.4343938524
 C        -8.1472757705       -1.6881848287        1.6176319043
 O        -7.8693816242       -2.8925643692        1.4810110177
 C        -6.9451439787       -0.6477887622        1.8033598068
 C        -7.4705196196        0.2744483821        3.0039471568
 O        -8.3502224961       -0.0988155628        3.7202218913
 C        -6.8972027982        1.7468603452        3.0423953184
 C        -7.6469169372        2.7259809612        3.9225307153
 C        -8.3283971621        3.7032464490        3.0225276175
 O        -7.7706623334        4.1993181250        2.1057019177
 C        -9.8730518111        4.1554784879        3.4162556407
 C       -10.6462858782        4.2950010703        2.0550080034
 O       -10.4743647758        5.3642697051        1.4035046762
 C       -11.3856200784        3.1166103933        1.4048718999
 C       -11.6192344426        3.2470693971       -0.1683694666
 C       -10.4140407769        3.0894885159       -1.0507394013
 O        -9.2872261334        3.1359577584       -0.5013405221
 C       -10.4946976528        3.0974483319       -2.5940253930
 C        -9.5237725649        4.2250616314       -3.1764358800
 O        -8.9499902854        5.0366483200       -2.5050668484
 C        -9.3799863607        4.0956239964       -4.8190927990
 C        -9.2371726114        5.4115547002       -5.4649233777
 C       -10.3375215593        6.3840349199       -4.8704648070
 O       -11.1658188996        6.0383973174       -4.0587102780
 C       -10.2397689504        7.8756125344       -5.3048051504
 C        -9.8140746356        8.3868268554       -3.9020766189
 O        -8.6729345503        8.3183027067       -3.5560791185
 C       -10.9368613342        9.0581238986       -2.9862961001
 C       -10.4202980908        9.6471252476       -1.6964820887
 C        -9.6930839599        8.5483651378       -0.9091910262
 O       -10.0543725880        7.4149890499       -0.8585452205
 C        -8.2309851408        8.8519545134       -0.1507404927
 C        -7.1403086188        7.8399039539       -0.3800011653
 O        -7.1239297328        6.8206707492        0.3089269314
 C        -6.0496226427        8.1046744623       -1.4197888507
 C        -7.8420506924       10.2759081413       -0.5308102782
 C        -8.3810085885        8.8456899753        1.3722044172
 C        -9.2085606603        8.2388904664       -6.3891083399
 C       -11.7056253353        8.3758805585       -5.7288462686
 C        -9.8755096068        1.7042026400       -3.0793488497
 C       -11.9107792431        3.1354320832       -3.2089775715
 C       -10.5268963122        3.1589098154        4.2877930248
 C        -9.6601167350        5.5322860677        4.0356777123
 C        -5.5892539534       -1.3570750705        2.0549357918
 C        -6.8756342097        0.1234072033        0.4855513641
 C       -13.5693450085       -3.2620163726        2.0283980584
 C       -14.6461277620       -1.1377366289        1.3668129355
 H       -15.5573573841       -1.4107315310        4.5674296086
 H       -15.1851634611        0.1572884618        4.0196553502
 H       -14.2143786213       -0.5520848450        5.4110941180
 H       -10.8902698473       -2.9655791506        1.3650996955
 H       -10.8183394767       -2.1305976205        2.9946485017
 H        -9.6055418458       -0.2318937480        1.6794618555
 H        -9.7379420279       -1.0924283533        0.4076281021
 H        -7.0228489228        2.0043941620        1.9997694218
 H        -5.8505420408        1.8438382821        3.4102463353
 H        -7.0223629558        3.2872696396        4.5444797299
 H        -8.4156772208        2.2634954846        4.5453316571
 H       -12.3210977406        3.0124126028        1.9338796828
 H       -10.8109152094        2.2804862158        1.7296041173
 H       -11.9262940541        4.2322067633       -0.4221677561
 H       -12.5468836476        2.6378511334       -0.4608103578
 H       -10.1722807765        3.4260342572       -5.2286865778
 H        -8.3396181440        3.6068965616       -4.7670948674
 H        -9.3114481403        5.3768668806       -6.5721875025
 H        -8.2473101628        5.8974916833       -5.2926481553
 H       -11.6071651943        8.1234348535       -2.7837797604
 H       -11.4957440129        9.8522364991       -3.5695831785
 H       -11.2187338097        9.9516067953       -1.0073966257
 H        -9.8521015009       10.5956991426       -1.8553122580
 H        -6.4283420003        8.4214638257       -2.4172738524
 H        -5.4322505738        7.1856186293       -1.6591242677
 H        -5.4474551378        8.9713960508       -1.0680550071
 H        -8.4801595587       10.9279597331        0.0014895921
 H        -7.8782112564       10.4122855218       -1.5846004335
 H        -6.7163926951       10.3804909134       -0.2416833305
 H        -9.4094770567        9.1002094462        1.6687127555
 H        -7.5912146581        9.5208657077        1.7725511724
 H        -8.3306159240        7.8787466378        1.7209238334
 H        -9.3609242050        7.8163841181       -7.3503512744
 H        -8.1229665929        8.1638875156       -6.1287704168
 H        -9.2852266225        9.3110287634       -6.6095457826
 H       -11.5371521002        8.6839795194       -6.8048082761
 H       -12.1206839339        9.2061766414       -5.1176307852
 H       -12.4517124750        7.5644143852       -5.8675897559
 H       -10.0753391138        0.8994109943       -2.3927879958
 H        -8.8204880916        1.8977593262       -3.1661742017
 H       -10.2248486154        1.4359020166       -4.0714731319
 H       -12.2913125407        4.1348064881       -3.4887431155
 H       -12.7058866047        2.7852498975       -2.5111538404
 H       -11.8387340562        2.3231684485       -4.0148613739
 H       -10.5932480548        2.1707547235        3.9500092185
 H       -11.6511399286        3.2834394043        4.5008004433
 H       -10.0909925191        3.1681172098        5.2778270522
 H        -9.4249464553        6.2506096895        3.2378646363
 H        -8.8229163928        5.4701654318        4.7188884965
 H       -10.5660515566        5.9597088713        4.4656353494
 H        -5.2824055619       -1.8147962101        1.1174197120
 H        -5.5898296155       -2.1720349147        2.8246011308
 H        -4.8246087634       -0.6036439779        2.3397407658
 H        -7.7619770094        0.7667645893        0.1971966507
 H        -6.6362944704       -0.5871999926       -0.3062111277
 H        -6.0359302399        0.8474906538        0.5565437250
 H       -12.9288652494       -3.7827897708        2.7718417404
 H       -13.4744345189       -3.6608940100        0.9955254742
 H       -14.5038702639       -3.6627090043        2.2437849965
 H       -14.6560232060       -0.0746071927        1.6589630027
 H       -15.5237546038       -1.5207353864        1.9005027587
 H       -14.5872111477       -1.3437069023        0.2815720945
 Na       -8.7562045940        5.5098840723       -0.0426744153
