117

 C        -5.7009722868        2.8226436985       -7.4061480008
 C        -6.4000312519        4.0781301138       -7.9909040741
 O        -6.1359567866        5.2832533418       -7.7737575902
 C        -7.8664303372        3.8153897487       -8.7105046639
 C        -8.8605673835        3.9351346347       -7.5381955961
 O        -9.4019658613        2.9274568831       -7.0733657960
 C        -9.0110135932        5.3010697563       -6.8434656987
 C       -10.2204408118        5.3194905062       -5.9505425638
 C        -9.8513114256        5.7082497472       -4.4053969616
 O        -9.6388041554        6.8544302539       -4.0622479010
 C        -9.7811476399        4.4979625752       -3.4439635895
 C        -9.5163529718        4.8412341401       -1.9218545938
 O        -9.6991277383        3.9342216245       -1.1606348327
 C        -8.6930659717        6.0895105657       -1.4996509741
 C        -9.4659087222        7.1662136248       -0.6397207899
 C        -9.6916663362        6.7448906439        0.7703627425
 O        -9.2947327769        5.6939086156        1.2264618800
 C       -10.3981213484        7.7958586656        1.7952585625
 C       -11.3282064049        7.1497574131        2.8808319719
 O       -10.8575798568        6.9881187707        3.9969689138
 C       -12.6826175476        6.5952557086        2.3671937415
 C       -13.1945174718        5.3428674579        2.9489030326
 C       -12.6057857223        4.0199079759        2.2645473295
 O       -11.6056436004        4.1847388808        1.5917183585
 C       -13.2207467982        2.6243331807        2.6150363804
 C       -12.2466139739        1.3487429502        2.5218973974
 O       -11.2580383626        1.5401320895        1.7740067360
 C       -12.5450612720        0.0737420900        3.1953811801
 C       -11.9421029374       -1.2202295291        2.6175895601
 C       -10.4887142836       -1.5239127572        2.9103495625
 O       -10.1925268404       -1.6972575124        4.0746482057
 C        -9.2447260243       -1.2745872339        1.8487931766
 C        -8.5790909327       -0.0040583224        2.4212006011
 O        -8.6655372096        1.1078364862        1.8375030519
 C        -7.6191599377       -0.0986681214        3.5635228061
 C        -6.8305958675        1.2599047162        3.7072723437
 C        -7.7904982504        2.2694099604        4.3217837116
 O        -8.7049124933        2.9084611669        3.6930080097
 C        -7.7066973440        2.6819017052        5.8212305524
 C        -7.9517733212        4.3181176597        5.8329845606
 O        -7.0121016058        5.0332933407        6.0027264975
 C        -9.4150662487        4.7049110185        5.7062062995
 C        -8.7961763210        1.8287061848        6.6230989228
 C        -6.3971876184        2.2740065288        6.6138219100
 C        -8.4168881888       -2.5312099731        2.0193298087
 C        -9.6767282477       -1.3536965466        0.3621828343
 C       -13.9641507470        2.6388555210        4.1184959052
 C       -14.2974161953        2.2043032005        1.5917106890
 C        -9.3117263245        8.4816288097        2.5811418812
 C       -11.2584713846        8.8912676197        0.9201548579
 C       -10.9151515014        3.3786053478       -3.7649975937
 C        -8.3321404224        3.8258791491       -3.6491315500
 C        -7.9522892068        4.9873953152       -9.7732326911
 C        -7.7979667791        2.4104969398       -9.3741216449
 H        -6.3336438829        2.6274598618       -6.5572758351
 H        -4.6517819964        2.9689625441       -7.0825045250
 H        -5.5381984890        1.9460147372       -7.9528505715
 H        -9.2019416475        6.1655913828       -7.5254235224
 H        -8.0280877487        5.5105204780       -6.3150558750
 H       -10.8449018939        4.5052552165       -6.0038975638
 H       -11.0429815027        5.9917519321       -6.2110577402
 H        -8.4864141431        6.5755361336       -2.4939981506
 H        -7.8428545094        5.7925978605       -0.8928180716
 H       -10.4148662968        7.6066948565       -1.0638269823
 H        -8.7790909960        7.9197388061       -0.7251031754
 H       -12.3550234247        6.4024821887        1.2912848830
 H       -13.2899551647        7.4746262051        2.2879476833
 H       -14.3122924324        5.4026027182        3.0209035481
 H       -12.8512421954        5.1537498872        4.0296972237
 H       -13.5812402649       -0.1652616655        3.2188103803
 H       -12.1509672983        0.2680702406        4.2391069701
 H       -12.0117147414       -1.3007809195        1.5426076849
 H       -12.5279229633       -2.0920144459        3.0179898479
 H        -6.8822720973       -0.8988464733        3.3732044329
 H        -8.2740037258       -0.1926661227        4.4610150895
 H        -6.3032650555        1.6584349341        2.8260511905
 H        -6.0574726116        1.0091445713        4.4618802077
 H        -9.4279074800        5.6751000426        5.0808956759
 H       -10.0671891684        4.8781108606        6.6301919152
 H        -9.8882070163        3.8759200073        5.2467560651
 H        -9.1748148392        2.4540670534        7.3830382102
 H        -8.2857886070        0.9000350497        6.9703385880
 H        -9.6188452599        1.5327944360        5.9966109944
 H        -6.3258629359        1.2479710320        6.9387460517
 H        -6.2008302244        2.7578533441        7.5846367174
 H        -5.5456697102        2.7176641718        6.1206889163
 H        -8.9258289752       -3.3734055250        1.5889121821
 H        -8.3147974936       -2.9393823686        3.0401909781
 H        -7.4240408918       -2.4665455722        1.3947330011
 H       -10.0602847090       -2.3056122426        0.0843477074
 H        -8.8290966810       -1.1000541587       -0.3350904565
 H       -10.4339288515       -0.5280162304        0.2327428258
 H       -14.8677101476        2.0665018166        4.2564654151
 H       -14.0908291935        3.6495902785        4.4263777721
 H       -13.1657925432        2.4811380918        4.8313825722
 H       -14.9598010967        1.6868200767        2.1813631169
 H       -14.0178618974        1.4801815262        0.8644675024
 H       -14.7244418039        3.0973812484        1.2105545963
 H        -9.6042639084        9.2298596699        3.3191716223
 H        -8.6251977844        8.9698713974        1.8636222255
 H        -8.8675115698        7.7813705089        3.1724590051
 H       -12.4211373829        8.7248240943        1.1377807365
 H       -11.0531796028        9.0836363845       -0.1013161346
 H       -11.1752585835        9.9733156014        1.2870914358
 H       -10.7545943112        3.0561208566       -4.7898813490
 H       -11.9989415735        3.7887332428       -3.5788302578
 H       -10.8113079461        2.4182077089       -3.1626399660
 H        -8.4333986604        2.7650636777       -3.1823090707
 H        -7.6839825038        4.4820831687       -3.0593243879
 H        -7.9800872932        3.6850567162       -4.6477345850
 H        -8.9401190781        5.3041526485      -10.0193742215
 H        -7.4564128352        4.8198876025      -10.6913767915
 H        -7.4216986450        5.7974861380       -9.3292107656
 H        -7.9037712351        1.6881111156       -8.5590398663
 H        -6.7558368120        2.2833286263       -9.7578533206
 H        -8.4823909633        2.2831269870      -10.2126601106
 Na       -9.4338305594        3.4146429330        1.4411316526
