117

 C        -5.6227724136        2.2456648141       -7.4819521995
 C        -6.3497581126        3.5189434379       -7.8811272325
 O        -5.9122837966        4.5661101785       -7.3560382925
 C        -7.6181371294        3.5922789682       -8.7206387239
 C        -8.7904083045        3.8452560709       -7.6032485279
 O        -9.5957192599        3.0116528579       -7.2583152636
 C        -8.7486595557        5.1383355981       -6.9839138071
 C        -9.9578449046        5.3152341670       -5.9975981853
 C        -9.6767501953        5.5708828864       -4.5273533868
 O        -9.7124334309        6.6882731315       -4.0170054780
 C        -9.4719792814        4.3049321727       -3.5590106590
 C        -9.3283598605        4.6964675098       -1.8995338828
 O        -9.7663853710        3.8719512812       -1.0996924160
 C        -8.7052450114        5.9625724290       -1.4815395574
 C        -9.9054363544        6.8490021295       -0.9225775705
 C        -9.9170088398        6.8473339658        0.6396891042
 O        -9.4748370810        5.9480278901        1.3600905932
 C       -10.4708297195        8.1416903576        1.6003560882
 C       -11.2332774091        7.3086239262        2.6277705585
 O       -10.6710571436        6.9452902948        3.6547581400
 C       -12.6159327101        6.7702425215        2.2090634862
 C       -12.9462239383        5.4878600881        3.0140921314
 C       -12.6325555509        4.1430822552        2.3434575599
 O       -12.1875225763        4.0436129326        1.1741216028
 C       -13.1027569759        2.8893027397        3.0743301479
 C       -12.0134942789        1.6562719556        3.0397350770
 O       -11.0486121693        1.7831356266        2.2564909301
 C       -12.4136053901        0.3597082311        3.7712209931
 C       -12.0364151329       -0.9152970848        2.9977689562
 C       -10.5483389470       -1.2410782957        3.2931177653
 O       -10.1984075378       -1.5396358946        4.4383954627
 C        -9.5489857296       -1.2677403562        2.0187705518
 C        -8.4965598055        0.0034117376        2.0209656989
 O        -8.5125959441        1.0184104816        1.2773889647
 C        -7.5016787687       -0.0832143950        3.2975047627
 C        -6.8553938211        1.2168634331        3.7584159427
 C        -7.7128941283        2.4515719223        4.2615521997
 O        -8.2033193377        3.1745456106        3.3963002639
 C        -7.9373585246        2.5688179544        5.7855631350
 C        -8.1820902511        4.1541991901        5.7519811587
 O        -7.1705092709        4.8151309837        5.7158941887
 C        -9.5526807901        4.7996920536        5.5379595627
 C        -9.0056913719        1.5705442594        6.3409985263
 C        -6.5782477160        2.2116793309        6.4720700071
 C        -8.7023508274       -2.5917977941        2.2047574681
 C       -10.3088667287       -1.2453052228        0.6675789096
 C       -13.3888924655        3.1213888994        4.5861386971
 C       -14.4341833483        2.5566196584        2.2963317090
 C        -9.1717386509        8.7468027405        2.2692571166
 C       -11.3515108452        9.3349670043        1.1156740626
 C       -10.7568866617        3.2611456484       -3.5895540823
 C        -8.2660039805        3.4306882841       -4.0326484876
 C        -7.6591382156        4.8382661329       -9.5286421197
 C        -8.1030259791        2.3960910684       -9.5901243082
 H        -5.9479033055        1.9278711366       -6.4235307914
 H        -4.4684443076        2.1646018665       -7.5493515026
 H        -5.7413410185        1.4337635438       -8.2217674261
 H        -8.8393408973        6.0108782081       -7.6845806598
 H        -7.8312651115        5.2819525923       -6.4309366742
 H       -10.9011360017        4.8172269489       -6.0828641302
 H       -10.4983878752        6.2638269147       -6.1924232957
 H        -8.2472156151        6.4333646082       -2.3054867103
 H        -8.0560524924        5.6969447486       -0.6402121589
 H       -10.8545463009        6.5404964667       -1.4028284281
 H        -9.8373450850        7.9059148483       -1.2818860888
 H       -12.4305522162        6.6582679531        1.1510565737
 H       -13.4205297277        7.4169854499        2.3014390957
 H       -13.9738759005        5.6374758827        3.3468170455
 H       -12.3759747907        5.5187894597        3.9281123834
 H       -13.5194420651        0.3789386244        3.7679249055
 H       -11.7867997573        0.4089009294        4.7378086955
 H       -12.0384747545       -0.7752684071        1.9275569831
 H       -12.6315244580       -1.7683452419        3.2436281242
 H        -6.7484860555       -0.8369926745        2.8188349993
 H        -8.0402164842       -0.5877362537        4.0712474627
 H        -6.2055753553        1.6400474848        2.9334948544
 H        -5.9907906736        1.0821342751        4.4562341558
 H        -9.3563141379        5.7885022945        5.0575675188
 H       -10.2981060193        4.7584737535        6.2953928934
 H        -9.9696109177        4.2225049564        4.7357707789
 H        -8.5403753726        1.1462754570        7.1876171045
 H        -9.1872044226        0.7411658990        5.5738309636
 H        -9.9369084745        2.0730863349        6.5719189523
 H        -6.3724001947        1.1840161202        6.4762856998
 H        -6.5698735987        2.2138929814        7.5820206413
 H        -5.7568419245        2.8010859969        6.0752581768
 H        -9.1955083618       -3.3947934318        1.7311384978
 H        -8.6033594105       -2.8941551214        3.2538341244
 H        -7.7078455238       -2.4962594098        1.7289107272
 H       -11.1262197320       -1.9481092713        0.7647147961
 H        -9.6398875967       -1.4043438368       -0.1855111347
 H       -10.8346276857       -0.2871725990        0.5649011318
 H       -12.9478393695        2.1966837420        5.0284147933
 H       -14.3971842268        3.3809818551        4.9799410254
 H       -12.8868368928        4.0126875950        4.9901939417
 H       -14.6932443551        1.5607300712        2.6010003824
 H       -14.3870157517        2.6100050183        1.1717202513
 H       -15.1247818521        3.3831863340        2.6439205100
 H        -9.4267934930        9.3678514369        3.1333664740
 H        -8.7573544299        9.5488088029        1.5637687818
 H        -8.4098697315        8.0704843117        2.5763800990
 H       -11.8700140192        9.1385949970        0.0753921194
 H       -10.7216511493       10.1512637192        0.8720247712
 H       -12.1730980704        9.6352948124        1.7828515064
 H       -10.5077161068        2.2950236532       -3.8067599255
 H       -11.4257724795        3.7539331878       -4.2385360762
 H       -11.1970705995        3.0606658030       -2.5893831736
 H        -7.9040719435        2.7450011869       -3.1793146365
 H        -7.4527219044        4.0203556431       -4.3584649078
 H        -8.6523305142        2.8781315893       -4.7985339760
 H        -8.7125303141        4.9257964798       -9.9283866798
 H        -7.0772488481        4.7311695160      -10.4558877098
 H        -7.2620841122        5.8150764513       -9.1280742458
 H        -8.0688603488        1.5452485382       -8.9793667306
 H        -7.4370786938        2.2997352308      -10.5010189608
 H        -9.1110294080        2.5031720886       -9.9172688281
 Na       -9.5531373651        3.3824592815        1.1916871205
