117

 C        -5.6353496885        1.9816598544       -7.6900627669
 C        -6.4329242232        3.3499654789       -7.8488852374
 O        -5.8849290110        4.3454068965       -7.4102003722
 C        -7.7248470980        3.5238035548       -8.7454434813
 C        -8.8321225007        3.8487898524       -7.5625006369
 O        -9.6391900276        2.9604935467       -7.2934486363
 C        -8.7213118255        5.3396501909       -6.8426499425
 C        -9.9694155863        5.2564438029       -5.8861116229
 C        -9.7438508846        5.5317683724       -4.4229427384
 O        -9.7255331792        6.5975354058       -3.8920933097
 C        -9.6103303857        4.1701310906       -3.5176017787
 C        -9.2840061344        4.6455240705       -2.0467328637
 O        -9.6143750617        3.8398804854       -1.2209740248
 C        -8.7161209798        5.9693317425       -1.4677509181
 C        -9.9180856003        6.8097228316       -0.7661759245
 C        -9.9263536162        6.8614281240        0.6985388372
 O        -9.5507540105        5.9632705164        1.4134495102
 C       -10.4214315308        8.1985996151        1.4240175696
 C       -11.1645469821        7.3932245727        2.5184210291
 O       -10.6680908678        7.0419697055        3.5629260852
 C       -12.6077117528        6.8116247744        2.1266210146
 C       -12.8316773803        5.6203347576        2.9669327623
 C       -12.6067560585        4.2843733097        2.3795708951
 O       -12.1833340809        4.0658163936        1.2633235785
 C       -13.0947521672        2.8996504250        3.2208828781
 C       -12.0816276670        1.7516061703        3.0581685736
 O       -10.9889900130        1.8812111895        2.5330860312
 C       -12.4023091167        0.5241355500        3.8723867433
 C       -12.0504487727       -0.8011908959        3.1826464613
 C       -10.5633527380       -1.1162708639        3.3073420455
 O       -10.0620828773       -1.3764040896        4.3543148557
 C        -9.6475071513       -1.2127339639        2.0109204043
 C        -8.5208395017       -0.0091287997        2.0986040230
 O        -8.3951784156        0.8911813472        1.2956165757
 C        -7.4074872289       -0.1092186885        3.2071928639
 C        -6.9000898857        1.2377960751        3.5632922866
 C        -7.7810214030        2.4063479517        4.0653289099
 O        -8.2803903640        3.1847031988        3.2576353377
 C        -7.9257452237        2.5739804524        5.6640733140
 C        -8.1623585303        4.1815266925        5.8122781408
 O        -7.1899015115        4.8706175609        5.8054941344
 C        -9.5635979430        4.7970927462        5.6687446676
 C        -9.0139245277        1.5314316500        5.9710411860
 C        -6.6637270014        2.3754154856        6.5433975633
 C        -8.9437248480       -2.6326607226        2.1534396151
 C       -10.4036064050       -1.3571527617        0.6040248349
 C       -13.2982580931        3.1869006679        4.7702091725
 C       -14.5358218903        2.5052392370        2.6008818048
 C        -9.0989010121        8.6059583426        2.1209545385
 C       -11.3066654501        9.3114004050        0.8315639338
 C       -10.8042369181        3.3367174401       -3.5712108785
 C        -8.2235286378        3.4742758133       -3.8895652227
 C        -7.2927987512        4.8434243266       -9.5407062449
 C        -7.9946510025        2.2391748747       -9.5321002583
 H        -5.9810585578        1.5341015843       -6.6840363911
 H        -4.5086020953        1.9416378824       -7.6760833895
 H        -5.7284672129        1.2557294468       -8.5060648348
 H        -8.9053552152        6.1440662720       -7.5661390447
 H        -7.7899528702        5.6353903318       -6.2469612502
 H       -10.5679943814        4.3917521796       -5.9084551373
 H       -10.8644010307        5.8676721034       -6.0862618399
 H        -8.2911058640        6.6543035493       -2.2714882608
 H        -8.0378450144        5.6006810245       -0.7523800430
 H       -10.8486873941        6.3086932306       -1.2191830300
 H       -10.0446514668        7.7683233600       -1.1581674102
 H       -12.5437913461        6.6212655374        1.0641037136
 H       -13.4445564829        7.4167172306        2.2797210519
 H       -13.8771830024        5.7742150004        3.3527833227
 H       -12.2089455980        5.6806725323        3.9212405003
 H       -13.4610450692        0.4503316058        4.0205596967
 H       -11.6618378610        0.6994707357        4.7192471796
 H       -12.2467916981       -0.8664210359        2.1483483650
 H       -12.5330455992       -1.6711697321        3.6963186070
 H        -6.6424386466       -0.7642108475        2.7458286637
 H        -7.8380287499       -0.6398023278        4.1339117471
 H        -6.0829697572        1.6036450663        2.9455137883
 H        -6.2786424249        1.1087087021        4.4470224568
 H        -9.2914510463        5.8078331551        5.2914224986
 H       -10.3985437276        4.7229309454        6.4485853089
 H        -9.9767262961        4.3481517070        4.7833740355
 H        -8.6925990857        0.9160924383        6.8114130752
 H        -9.0343624961        0.8403926664        5.1014693622
 H       -10.0004669723        1.9925009712        6.0136227306
 H        -6.4309155471        1.3253616606        6.7841535967
 H        -6.8013175753        2.6590579991        7.5704356767
 H        -5.7704824923        2.7817032316        6.0948068572
 H        -9.6861610461       -3.3190800583        1.7860102642
 H        -8.6212552413       -2.8829366739        3.1507374810
 H        -8.0355388355       -2.7109887603        1.3947199360
 H       -11.2622892663       -1.9387138512        0.7805591885
 H        -9.6672475698       -1.7620059228       -0.1084016658
 H       -10.8141518905       -0.3872264846        0.2195485709
 H       -13.0259702633        2.3363030783        5.3940072000
 H       -14.2224747184        3.7101772477        5.0953874175
 H       -12.5660310279        4.0581038635        5.0373945734
 H       -14.5572173668        1.5122949138        2.9629180025
 H       -14.7327322677        2.6578966101        1.5843855361
 H       -15.2242868289        3.0396487030        3.1226120937
 H        -9.2778918461        9.4022755789        2.8682926539
 H        -8.4886359015        9.1462306566        1.4037011376
 H        -8.5543010075        7.7900627375        2.5121869189
 H       -11.5921946281        9.2187083447       -0.2687075181
 H       -10.8748742881       10.3349722052        0.8375291281
 H       -12.3595297975        9.2410412317        1.4063261184
 H       -10.4873253358        2.2418216297       -3.7097075655
 H       -11.3304996129        3.8027909608       -4.3772574090
 H       -11.2944559409        3.1590898844       -2.7056964748
 H        -7.7007659847        3.0615695857       -3.0317252565
 H        -7.6387871503        4.3002160901       -4.2062587188
 H        -8.4044746930        2.7476565788       -4.7207193733
 H        -8.1031191143        5.3591330201      -10.0932595301
 H        -6.4800056650        4.6994207393      -10.2950064260
 H        -6.8962976672        5.5563967955       -8.8331881118
 H        -8.1247271953        1.3073472796       -8.9817722526
 H        -7.1821490028        2.2478377034      -10.1813049529
 H        -8.8588494988        2.3477071535      -10.1487160466
 Na       -9.6874213207        3.3842434966        1.1142483506
