117

 C        -5.7579565211        1.7575062712       -7.8919407955
 C        -6.2671697891        3.2062789691       -7.8301129232
 O        -5.7434435680        4.0630180565       -7.2204095205
 C        -7.5804963785        3.5226663366       -8.6774431116
 C        -8.7657404048        3.8954397924       -7.6996827499
 O        -9.5329205704        3.0332592719       -7.3643839666
 C        -8.8944115281        5.0952404878       -6.8313996425
 C       -10.1291142303        5.2550574285       -5.8646761921
 C        -9.7454855343        5.4752308934       -4.3274244545
 O        -9.7976315582        6.6001636361       -3.8385952830
 C        -9.5307879849        4.2768793579       -3.4180084978
 C        -9.3169247407        4.5549094481       -1.8922751653
 O        -9.5080108353        3.5970162883       -1.1463795350
 C        -8.8045879862        5.9286490493       -1.4254669648
 C        -9.9414876549        6.8071367277       -0.9574399927
 C        -9.8363368734        6.8186868949        0.6250953422
 O        -9.5916003008        5.8162830167        1.2425103853
 C       -10.3454117387        8.1775699313        1.4277902401
 C       -11.1857907230        7.4582136028        2.5417294072
 O       -10.7647934710        7.2377459742        3.6386883674
 C       -12.5817991147        6.8183960894        2.1245020165
 C       -12.9536818438        5.6451391026        3.0853028042
 C       -12.7335580891        4.2796612470        2.3922064408
 O       -12.1204221984        4.1274782685        1.3981247233
 C       -13.1161711470        3.0221018040        3.3941322159
 C       -12.0435786141        1.9433128056        3.2370493680
 O       -10.9884460082        1.9627561455        2.7244420282
 C       -12.4253245035        0.5965761991        4.1107694491
 C       -12.1127244949       -0.6998918382        3.2924349865
 C       -10.5086270833       -1.0334735446        3.1875547955
 O        -9.9368992325       -1.0861041241        4.2670624909
 C        -9.6104057157       -1.2749099320        1.9621494759
 C        -8.5055481010       -0.1369494641        2.0391877587
 O        -8.5796980037        0.7159465730        1.2368446004
 C        -7.4879336289       -0.1570725352        3.1965927375
 C        -6.7250344991        1.2346355990        3.3912133573
 C        -7.6653202822        2.4142067742        3.9056895562
 O        -8.4137701405        3.0668767661        3.1949035565
 C        -7.9016292619        2.6298234376        5.4069352739
 C        -8.2022566701        4.2667677982        5.6208782615
 O        -7.2353868699        4.9224350473        6.0149836689
 C        -9.6159992001        4.6917784729        5.7693186122
 C        -9.1638322360        1.7035142897        5.7283716038
 C        -6.7714859298        2.4410225955        6.4001471013
 C        -9.0100376780       -2.6362064475        2.1058085872
 C       -10.4039762057       -1.1889106332        0.6705023374
 C       -13.1718574902        3.4024952311        4.8390586942
 C       -14.5335858510        2.5043930126        2.9316185773
 C        -8.9876286933        8.7709743682        1.9832831132
 C       -11.0311520767        9.0679205076        0.4945492152
 C       -10.8594911803        3.3386586403       -3.5829109914
 C        -8.1605413885        3.5584618410       -3.8571754746
 C        -7.1760100878        4.6548063250       -9.6237794887
 C        -7.9965070427        2.3339674394       -9.4547840968
 H        -6.2108100205        1.2391534590       -7.1095336072
 H        -4.7479579777        1.6283563392       -7.6947001130
 H        -5.8228088148        1.2475317560       -8.8673055226
 H        -8.7890959541        6.0207790203       -7.3718791820
 H        -7.9670809635        5.0927175982       -6.1683247937
 H       -10.8734921268        4.4503183465       -5.7978744533
 H       -10.8662689558        6.0171624274       -6.0309291557
 H        -8.3226748566        6.4202674866       -2.2979275463
 H        -8.1411863262        5.7060971115       -0.5790662306
 H       -10.8311221403        6.3347279955       -1.3727012323
 H       -10.0220136147        7.7919952480       -1.4755350532
 H       -12.5031567642        6.4633305536        1.0964664205
 H       -13.4039331026        7.6366918167        2.1336354132
 H       -13.9966435369        5.7805575552        3.4972469829
 H       -12.2783439104        5.6512283654        4.0317419476
 H       -13.4818559376        0.4275578527        4.1843868515
 H       -11.7886189794        0.6051092784        4.9253099197
 H       -12.6039388388       -0.8843462931        2.3286625681
 H       -12.3468819861       -1.5653401786        3.9507124081
 H        -6.7401485367       -0.8406809149        2.8594952462
 H        -8.0266981593       -0.6856765726        4.0487356005
 H        -6.3219564931        1.4408972472        2.4417467334
 H        -5.8002315114        1.2004490431        3.9223944040
 H        -9.6063576145        5.7497850710        5.8957214746
 H        -9.7497513090        4.1632731526        6.7611151250
 H       -10.4741900887        4.3959359621        5.0768694818
 H        -9.0182068104        1.2752322167        6.7531136951
 H        -9.1214185869        0.8800198793        5.0910541465
 H       -10.0900532693        2.2312276944        5.4733710423
 H        -6.5881709158        1.3413159772        6.6749132479
 H        -7.0768030264        2.7608060076        7.3726807766
 H        -5.7764435773        2.7599542043        6.1018089191
 H        -9.8571039532       -3.4307549236        2.2683291417
 H        -8.2602130541       -2.5814477050        2.9429393857
 H        -8.5059855009       -2.9238240431        1.2357439844
 H       -11.3541575224       -1.7534650469        0.7644400938
 H        -9.6832099933       -1.5053522239       -0.0598404867
 H       -10.6908993179       -0.1718217985        0.4552402292
 H       -13.4689114522        2.4977699681        5.4211589427
 H       -13.8497793620        4.2170835061        5.0297174548
 H       -12.2310550356        3.7709864178        5.3068583615
 H       -14.5230115234        1.5411187830        3.3751038021
 H       -14.5132721683        2.5670776025        1.8941703418
 H       -15.3828920830        3.0157933156        3.2587409190
 H        -9.0879514200        9.7666879923        2.3480440337
 H        -8.3341360037        8.9108378391        1.1852470135
 H        -8.4585639281        8.0671191694        2.6953783402
 H       -10.8570195258        9.0089253237       -0.5649292923
 H       -10.7160331628       10.1961988206        0.6116516002
 H       -12.0927334600        8.9777133122        0.6504968826
 H       -10.4692710922        2.3046401812       -3.5487850627
 H       -11.4731455045        3.7024609495       -4.4724517038
 H       -11.2983751199        3.1859271529       -2.5837817328
 H        -7.9585881221        2.9025473793       -3.0833380470
 H        -7.2485641619        4.2230517551       -3.9550336352
 H        -8.5108144077        3.0374876645       -4.8260586845
 H        -7.9326462849        5.0009823527      -10.2767536704
 H        -6.3363349383        4.3242360195      -10.2424980328
 H        -6.8176756706        5.5030044448       -9.0950161337
 H        -8.4974400395        1.5141366656       -8.9164290484
 H        -7.1686212744        2.0510247248      -10.0298858990
 H        -8.7275856737        2.7027817248      -10.1947193452
 Na       -9.7705246799        3.4193962330        1.1174116197
