117

 C        -7.2357186010       -5.4769096514        4.6547585794
 C        -6.7067411181       -5.2517684066        3.2630496330
 O        -5.9001260559       -6.0507612897        2.8525535778
 C        -7.3418531499       -4.1563841862        2.4238986464
 C        -8.8642584367       -4.1870334710        2.5005978686
 O        -9.4336464193       -4.8248261398        3.2836102243
 C        -9.6844549989       -3.1783687252        1.4693351065
 C       -11.1863135052       -3.1883488926        1.8347940133
 C       -12.0750185480       -1.9391380662        1.9377477820
 O       -12.5281978932       -1.3397311715        0.9551976026
 C       -12.1905251747       -1.0493715804        3.2718731977
 C       -10.9687708143       -0.0298965348        3.1697761321
 O        -9.9010451488       -0.3339116627        3.6450847192
 C       -11.0558052200        1.1578551372        2.1305982521
 C        -9.6726530764        1.5771460921        1.6491245388
 C        -9.7426039378        2.4753166999        0.3816150540
 O        -9.3366449381        3.6415425371        0.4783209015
 C       -10.1282665381        1.8256392157       -0.9930563635
 C       -11.7401069141        2.2315799331       -1.2932155592
 O       -12.4921655241        2.3104738896       -0.3590174819
 C       -12.2366601894        2.4976590617       -2.7147022684
 C       -13.1171945328        3.7784258157       -2.7353519980
 C       -12.2928393355        4.9503870988       -2.1819976387
 O       -11.1842211537        4.7526595926       -1.6608080376
 C       -12.8658750522        6.3695406111       -2.3869856223
 C       -11.5440929114        7.3006005601       -2.7682089529
 O       -10.5523170582        7.1111071415       -2.1340250435
 C       -11.7683375136        8.3877034627       -3.7588361896
 C       -10.4358038653        9.1812527142       -3.8114906021
 C       -10.5172382847       10.5978423476       -3.1104972567
 O       -11.5025322753       11.0909571557       -2.7119908795
 C        -9.1503622705       11.4555740290       -2.8178629260
 C        -8.4532940263       10.5967597262       -1.6005065983
 O        -8.1844859887        9.4626929869       -1.9377939535
 C        -8.2962725382       11.0348865055       -0.1144827267
 C        -7.2472095039       10.0749148993        0.4981592329
 C        -7.8836530365        8.6470493444        0.4698922611
 O        -9.0638216187        8.3682550918        0.3950749645
 C        -6.7787658482        7.4119445557        0.3958230774
 C        -6.7895547520        6.8177580644       -1.0124332955
 O        -7.6721959590        6.0197912621       -1.4043883455
 C        -5.8851193108        7.3680213541       -1.9792914354
 C        -5.3160801728        7.8088277149        0.8779486864
 C        -7.3339116835        6.3990558973        1.4129486608
 C        -8.2500654406       11.5719500935       -4.0685507530
 C        -9.6555129606       12.8300210970       -2.3518382907
 C       -13.9062688912        6.3600602732       -3.5182324787
 C       -13.4389027042        6.8282434497       -0.9690617858
 C        -8.9965449908        2.3579362962       -1.8883122268
 C       -10.1982888617        0.2646553430       -0.9005256779
 C       -13.5228484326       -0.2716811700        3.3272933702
 C       -12.0415929860       -1.8495950161        4.5965124326
 C        -6.8348759000       -2.8212978694        3.0896796777
 C        -6.7815675700       -4.3544035470        1.0223626459
 H        -7.5792374266       -6.4920862786        4.6240341528
 H        -7.9786678647       -4.8072781830        4.8490452883
 H        -6.4179336361       -5.4304636084        5.3655089263
 H        -9.5816052322       -3.6522166002        0.5302430819
 H        -9.1778732654       -2.1805656582        1.5387218031
 H       -11.2102699227       -3.7510292031        2.7314853037
 H       -11.7412465539       -3.7913829155        1.1056609486
 H       -11.6088110968        2.0704532859        2.4821053963
 H       -11.6165171964        0.7134148817        1.2342473695
 H        -9.1017350537        0.7035172655        1.3308498775
 H        -9.1059306058        2.0880284661        2.3762733109
 H       -12.9120856518        1.6837783262       -2.8378102961
 H       -11.3622222475        2.6617752499       -3.2927409662
 H       -13.8633906366        3.6082012542       -2.0423137375
 H       -13.7024849769        3.7849206490       -3.6558324678
 H       -12.6070101470        9.0075033512       -3.2978525893
 H       -12.3049699976        8.0345947126       -4.7570871802
 H       -10.0771718426        9.3906545105       -4.7889978793
 H        -9.6141349641        8.4919887601       -3.4100766671
 H        -9.2310089303       10.9477798395        0.5001465453
 H        -7.9735361009       12.0605274134       -0.0460263506
 H        -6.9653089595       10.3353316467        1.5363845055
 H        -6.2975608468       10.0226368361       -0.0417431889
 H        -5.8277421863        8.4259062770       -1.9408148502
 H        -6.1684910399        6.9749786305       -2.8957864197
 H        -4.8579701986        6.8406370342       -1.8828273822
 H        -5.3560784780        8.1163795683        1.9545133012
 H        -4.9878567542        8.6369111331        0.2519121951
 H        -4.5783504215        7.0459788284        0.7918612710
 H        -6.9826510112        6.5365023735        2.4375075639
 H        -6.8997964401        5.3419043095        1.1975644595
 H        -8.3637324559        6.4087649458        1.2314263761
 H        -7.7217574452       12.5094218207       -4.0944231839
 H        -8.8172753955       11.6240692270       -4.9644436665
 H        -7.5897437000       10.6909508774       -4.1325224842
 H        -8.8068849752       13.4055147004       -2.0430302902
 H       -10.3338426680       12.5610706911       -1.5282997612
 H       -10.0948159755       13.3677865558       -3.1564017513
 H       -14.7723507526        5.7335807314       -3.1242978163
 H       -13.3619251663        5.8524740367       -4.3844999075
 H       -14.2056575666        7.3283489840       -3.7882657632
 H       -14.2407828889        6.1551380343       -0.5335927557
 H       -13.9108682535        7.8512753164       -1.3147203120
 H       -12.6758785245        7.0114156653       -0.1531637235
 H        -9.1796842403        2.1670033411       -2.9852166375
 H        -7.9930104087        2.1709624441       -1.6229324980
 H        -9.0785422883        3.4654099541       -1.8709021558
 H       -11.0490824685       -0.0639215808       -0.3138061254
 H        -9.2597993133       -0.1351796234       -0.5697434290
 H       -10.2529669704       -0.0983827897       -1.9016218870
 H       -14.2995195685       -0.8680746699        3.7261224335
 H       -13.7112673224        0.1683600832        2.3766187117
 H       -13.3190091727        0.6441484780        3.9079877957
 H       -12.5917092668       -2.7270229454        4.7356186983
 H       -12.1363228875       -1.1011229734        5.3766673211
 H       -11.0713906351       -2.2350559692        4.6857461645
 H        -7.2984357072       -2.7996466664        4.0769532515
 H        -6.9709424126       -1.9155209020        2.4052384905
 H        -5.7417327328       -2.8007666873        3.0607625551
 H        -6.2440243052       -5.3371743172        0.9622517203
 H        -6.1455874527       -3.4812344582        0.7686929542
 H        -7.6178353783       -4.4343951888        0.3306730678
 Na       -9.6562566110        5.7898399047       -0.2963674230
