117

 C       -14.6168059867       -0.8524828635        4.4331659745
 C       -13.2870815079       -1.1771904674        3.7845492104
 O       -12.2505929335       -1.3572032262        4.4165840157
 C       -13.4098397631       -1.6254151436        2.2390190327
 C       -12.1238049306       -1.0911579047        1.5895223364
 O       -12.0647668431       -0.0908247151        0.9002781520
 C       -10.8265931913       -1.8715457992        1.9701278515
 C        -9.5880508313       -1.1488308269        1.4254109480
 C        -8.1565634675       -1.7483642282        1.7122901050
 O        -7.7946753412       -2.9246285067        1.7201684959
 C        -6.9649592016       -0.6443927426        1.8053673219
 C        -7.4616129041        0.3226456959        2.9167104833
 O        -8.2065566703       -0.0090849365        3.8024687368
 C        -6.9865230242        1.7409887863        2.7837601497
 C        -7.6069240546        2.6048884437        3.8239230936
 C        -8.4335274652        3.7201423314        2.9989644172
 O        -7.8878684746        4.3374543360        2.1229882132
 C        -9.8891376407        4.1458758109        3.3662969073
 C       -10.5559383026        4.2424642839        1.9085672446
 O       -10.5933248587        5.3010601108        1.3363913256
 C       -11.3076011827        3.0313782939        1.4273822375
 C       -11.6266826908        3.0839951129       -0.0584488411
 C       -10.3834947621        3.1114710370       -1.0176036044
 O        -9.2343363170        2.9763975963       -0.5990250430
 C       -10.4755477707        3.0027388491       -2.6177009858
 C        -9.4698496646        4.1136680814       -3.2014339331
 O        -8.8922041588        4.9663780588       -2.5301006052
 C        -9.1465573138        4.0871762056       -4.6667943613
 C        -9.2315078335        5.4001890899       -5.4630223204
 C       -10.3740813477        6.3945439433       -4.9376488699
 O       -11.1419853616        6.0271298154       -4.0744550562
 C       -10.3101094155        7.9347700693       -5.3617844009
 C        -9.8798755510        8.5050539549       -3.9510252677
 O        -8.7425688620        8.2520377397       -3.5643276629
 C       -10.9925906687        8.9127580924       -2.9580184676
 C       -10.3845113513        9.5826197087       -1.7605807012
 C        -9.6262803417        8.5736245282       -0.9344660444
 O       -10.1149628765        7.4622727782       -0.8032068860
 C        -8.2907883782        8.9741252194       -0.1354411049
 C        -7.2171886956        7.9059863589       -0.4877228973
 O        -7.0700415530        6.8788923190        0.1102876517
 C        -6.1400751658        8.2029489567       -1.5718313217
 C        -7.7861394320       10.4137154886       -0.6733505892
 C        -8.6231384468        8.9049208862        1.3810799854
 C        -9.2962858242        8.1745888038       -6.4525071106
 C       -11.7702220638        8.2935965267       -5.8019120469
 C       -10.0407196138        1.5774394631       -3.0715490380
 C       -11.9621180081        3.3225396310       -3.1491807994
 C       -10.5787141556        3.1128435745        4.3086578284
 C        -9.5265323372        5.5601431552        3.9380808799
 C        -5.7597208022       -1.4527944861        2.1297202200
 C        -6.6806728166        0.1323927056        0.4529838381
 C       -13.2766660643       -3.1835326748        2.1515344402
 C       -14.7096831150       -1.1403973820        1.4350718612
 H       -15.3894187051       -1.5911669480        4.4078983010
 H       -15.1667526200       -0.0565308994        4.0059472291
 H       -14.3965310510       -0.5726830420        5.4556741042
 H       -10.9340365044       -2.8190668831        1.5342358416
 H       -10.8195884963       -1.8864315541        3.1026487208
 H        -9.4776462748       -0.0853695407        1.6712506660
 H        -9.7800673672       -1.0482146605        0.3698137379
 H        -7.2220829473        2.0546148733        1.7159802757
 H        -5.9000510751        1.6714554394        2.9524240243
 H        -6.9204454998        3.2196752220        4.4412004133
 H        -8.2486326092        1.9775088010        4.4975747440
 H       -12.1322620290        2.8880075173        2.0332263011
 H       -10.6527913698        2.1898664714        1.6971085614
 H       -12.3556178946        3.8339430697       -0.3156939323
 H       -12.1489993736        2.1771011680       -0.2793517882
 H        -9.8363238373        3.3478310225       -5.1141951309
 H        -8.1070109371        3.7207647032       -4.5889337901
 H        -9.3984291876        5.1298320359       -6.4655755118
 H        -8.3487705405        6.0072005644       -5.5023883789
 H       -11.4603291087        7.9207706575       -2.6948531408
 H       -11.6958534404        9.5844813307       -3.4506942376
 H       -11.1149957127        9.8543455658       -1.0263307104
 H        -9.8525605366       10.4800535000       -2.0142064729
 H        -6.5171689916        8.8514173664       -2.4479056542
 H        -5.6468424751        7.3474342624       -2.0428513597
 H        -5.4646757158        8.9429295059       -1.0288481913
 H        -8.3975241304       11.2279947655       -0.3314554522
 H        -7.6675154363       10.4483555110       -1.7531793610
 H        -6.7981813923       10.4482943323       -0.1859741764
 H        -9.6618140359        9.1307194380        1.5195457180
 H        -7.9615904169        9.5472342592        1.9245264771
 H        -8.6653089912        7.7990462669        1.7287830279
 H        -9.4510657033        7.7179076060       -7.4540770796
 H        -8.2341371076        7.9746573792       -6.0641698213
 H        -9.1617022707        9.2092251863       -6.6777960291
 H       -11.7688256284        8.6746882980       -6.8271201449
 H       -12.1742857610        9.0708708625       -5.0956689328
 H       -12.5242629038        7.4346159844       -5.8216110967
 H       -10.5869164506        0.8502732863       -2.5360218660
 H        -8.9627292138        1.4782681476       -2.9294485933
 H       -10.2166259166        1.5300153238       -4.1073588404
 H       -12.2911874435        4.3461268216       -2.8299430226
 H       -12.7008047377        2.6771970552       -2.6361921584
 H       -12.0262806739        3.0251657983       -4.2382264212
 H       -10.6067073937        2.0312675167        4.1113814032
 H       -11.6504615984        3.3058677028        4.3555933278
 H       -10.2783997082        3.2257079837        5.3455063625
 H        -8.8446746511        6.0920332856        3.2797828133
 H        -9.0703837599        5.4171694930        4.9739242488
 H       -10.4061949203        6.2325932885        3.9732958069
 H        -5.4802795270       -2.0563397927        1.2325499166
 H        -5.9471744250       -2.1811573620        2.9184380138
 H        -4.9359189590       -0.8173054317        2.4296052304
 H        -7.3804702962        0.8942168131        0.1127969830
 H        -6.4547494639       -0.6147253640       -0.3596938422
 H        -5.7455961855        0.6946227951        0.6375027657
 H       -12.6590072032       -3.5787636092        2.9912547203
 H       -13.0383961801       -3.6197264303        1.1455199231
 H       -14.2251669806       -3.7125354886        2.3583992397
 H       -14.8843079376       -0.0797523815        1.7188524826
 H       -15.6018242110       -1.6779096924        1.7298574755
 H       -14.3740837949       -1.2500495666        0.3851381132
 Na       -8.8269418609        5.3447572475       -0.0980206660
