117

 C        -5.8363536835        0.7523153557       -8.4535566043
 C        -6.5091068918        1.8295416887       -7.4681004495
 O        -6.6650435771        1.7111523982       -6.2586136054
 C        -7.1853145371        3.1240460921       -8.3331719989
 C        -8.4178880273        3.5206348025       -7.5072276179
 O        -9.4311209255        2.8359060817       -7.6055546951
 C        -8.4561887630        4.8758602020       -6.4775119098
 C        -9.7983548831        4.8971211996       -5.6372439680
 C        -9.6375451521        4.9385300923       -4.0784605664
 O        -9.6447357265        5.9897831049       -3.4503562956
 C        -9.5898065508        3.5697659775       -3.3218188914
 C        -9.7297269756        3.7685062088       -1.7829896497
 O       -10.7297581683        3.3732887765       -1.2756437754
 C        -8.5670437244        4.5286491707       -0.9151148364
 C        -8.8170301476        5.9604374197       -0.8185583417
 C        -9.7554533485        6.4480991248        0.4003196274
 O       -10.0938271820        5.7038840679        1.3041524936
 C       -10.1226577848        7.9072381615        0.6644287461
 C       -11.0494672610        7.8602654868        1.9374299124
 O       -10.8719154942        8.5583576731        2.8978114409
 C       -12.2398021407        6.8785700718        1.7352694320
 C       -12.6378556974        6.1954870600        2.9984640674
 C       -12.6198291253        4.6389152395        2.7978161738
 O       -12.6761006132        4.0838497464        1.7647623701
 C       -12.9258608205        3.6421165654        4.0355397152
 C       -12.2116802857        2.2269838931        3.6959102099
 O       -11.2321008835        1.9784402650        3.0428238405
 C       -12.8173327365        0.8441212859        4.4514594924
 C       -12.4962823087       -0.4738389871        3.6288723752
 C       -10.8924921158       -0.5178456921        3.4970639969
 O       -10.1475979240       -0.4209488716        4.4449196066
 C       -10.2966249601       -0.8276590953        1.9345265376
 C        -9.2637695970        0.4140955305        1.7856781038
 O        -9.3764849912        1.2344887815        0.9033076647
 C        -8.0172052728        0.4077719921        2.5947940804
 C        -7.4130496150        1.8966119934        2.5734178233
 C        -8.0265127365        2.8856750869        3.6258834988
 O        -9.0420660891        3.4453246144        3.2715941602
 C        -7.4672539124        3.0520755170        5.0599331113
 C        -7.2222669310        4.6136438826        5.4239843736
 O        -6.0948429755        4.9903112079        5.3660769646
 C        -8.3362619256        5.5548356832        5.7223600044
 C        -8.5573795242        2.6209248681        6.0366161222
 C        -6.0496230716        2.5748542009        5.4483362927
 C        -9.6766812505       -2.2367366753        2.1481942037
 C       -11.2749955646       -0.7600322103        0.6466890238
 C       -12.4069572216        4.0504583878        5.4959494190
 C       -14.4383861498        3.5431469943        3.9385984824
 C        -8.7345206443        8.6404541461        0.8793743117
 C       -10.8267929951        8.7373971408       -0.5021808864
 C       -10.6018595443        2.4171367074       -3.7186093980
 C        -7.9941413701        3.0702285863       -3.6193679717
 C        -6.0839115221        4.1569503492       -8.6554184553
 C        -7.7895366103        2.7306863365       -9.6885015986
 H        -6.5925290868       -0.0387428524       -8.7464606774
 H        -4.8963229901        0.2846579222       -8.1932459889
 H        -5.8521254457        1.1699449700       -9.4445955872
 H        -8.4486381491        5.8462226627       -7.0901391267
 H        -7.5461690597        5.0206482771       -5.9325737742
 H       -10.2758287788        3.9729553169       -5.9093421042
 H       -10.2979937653        5.8721270652       -5.9113265741
 H        -7.5380503639        4.4275937362       -1.1830337906
 H        -8.4983528268        3.9620529236        0.0496695163
 H        -9.2148151186        6.3140250509       -1.7784916424
 H        -7.8565539236        6.5344278304       -0.6183124058
 H       -12.1067472913        6.1087361084        0.9242302123
 H       -13.1026430206        7.4598167589        1.5586720607
 H       -13.6993723298        6.3578734313        3.3222148252
 H       -12.0369471493        6.5591276542        3.8587239335
 H       -13.8565840091        0.8357232968        4.7041594322
 H       -12.2676140245        0.7212999059        5.4083202125
 H       -13.0141615356       -0.6382127338        2.6480776152
 H       -12.7581793545       -1.3724839799        4.2515013379
 H        -7.2171365278       -0.2641122212        2.1535281438
 H        -8.0765091028        0.0601894701        3.5607566735
 H        -7.5803930341        2.3335095759        1.5885935579
 H        -6.3758899572        1.8768603431        2.8699687413
 H        -7.8697299019        6.5470384945        5.9110551178
 H        -8.5738756022        5.2941886363        6.7781941106
 H        -9.1437045100        5.4636001320        5.0366814431
 H        -8.1550603690        2.8566621383        6.9955095958
 H        -8.6442698790        1.4915572404        5.9002059105
 H        -9.5369216363        3.1221452446        5.9719437932
 H        -5.8354278352        1.4695323652        5.5058988863
 H        -5.6824458351        3.1018780552        6.3809055941
 H        -5.3371159806        2.9463636508        4.7177448575
 H       -10.4451497995       -2.9408007511        2.3719874824
 H        -9.1406183886       -2.1316259930        3.1075275200
 H        -8.9883346180       -2.5207768896        1.2303277765
 H       -11.9469487909       -1.5764426865        0.6122120314
 H       -10.5809793613       -0.9781188352       -0.1848178470
 H       -11.5802751554        0.2879283016        0.4994349897
 H       -13.0965201645        3.7774392968        6.3240752708
 H       -12.3022595013        5.1726879747        5.6067212278
 H       -11.4420627023        3.5616364463        5.7979777685
 H       -14.7508912259        3.1249146955        4.8857722887
 H       -14.7706013037        2.8604611343        3.1945722770
 H       -14.8161845533        4.5353076250        3.8535298016
 H        -8.7398344675        9.7293061111        0.7066066151
 H        -7.9397853879        8.1556336290        0.2621044464
 H        -8.5129412391        8.6016310645        1.8820693931
 H       -11.3483289738        8.0727965805       -1.1913046895
 H       -10.0940044146        9.4429290572       -1.0862209734
 H       -11.6260430534        9.2703272104        0.0102191845
 H        -9.9702724161        1.5692542676       -3.1895706661
 H       -10.4624221965        2.1280330531       -4.7910867772
 H       -11.5771736476        2.7258972915       -3.4657586989
 H        -8.0943412744        1.9968489371       -3.7441260656
 H        -7.3765983548        3.4194543032       -2.8587126953
 H        -7.5535908004        3.4936495933       -4.6029805160
 H        -6.5638066415        5.1289130122       -8.9590022724
 H        -5.5060815835        3.7741775731       -9.4862161646
 H        -5.2310934742        4.3272627627       -7.9725657916
 H        -8.3160633184        1.7908060080       -9.6345678364
 H        -7.0247578818        2.6491389383      -10.4663844158
 H        -8.4455090747        3.5017744679       -9.9774493557
 Na      -10.3895320072        3.3058620571        1.2712850817
