117

 C        -5.8863431443        0.2775978533       -8.2600226968
 C        -6.7715161305        1.3677972200       -7.5159205631
 O        -7.2804443062        0.9339788532       -6.4989048853
 C        -7.0781622396        2.8294491311       -8.0705052697
 C        -8.4221487713        3.0944314340       -7.4495815456
 O        -9.3906614246        2.5594921514       -7.9447048808
 C        -8.4401142603        3.9052297558       -6.0802959866
 C        -9.7885556775        4.4064841137       -5.4808763492
 C        -9.4006777816        4.5374141781       -3.9978126568
 O        -9.1339397929        5.5587583476       -3.4360761097
 C        -9.4289633222        3.2350088054       -3.1317285290
 C        -9.3853389350        3.9061751893       -1.6086923006
 O       -10.3846084628        3.9121455389       -0.9309805108
 C        -8.0304434875        4.4371577429       -1.1175741746
 C        -8.2635079708        5.9840701127       -0.6993659864
 C        -9.4518353005        6.2488589437        0.3945141238
 O        -9.6713684551        5.5558688850        1.3306420836
 C       -10.0786101957        7.6801194308        0.2186516707
 C       -11.0146071196        7.9054577379        1.5799091193
 O       -10.6867541927        8.5589993682        2.4985065406
 C       -12.2479549283        6.9771154301        1.6609580388
 C       -12.4544467272        6.2513707948        3.0507305192
 C       -12.8855856181        4.8273202436        2.7430983746
 O       -13.4593232314        4.4095429646        1.7087043753
 C       -12.9952991670        3.7555440647        3.9880040589
 C       -12.8350062990        2.2865583125        3.5105181656
 O       -12.3239170085        2.0610944411        2.4325605285
 C       -13.5327890298        1.1598830552        4.3025204988
 C       -12.9655715539       -0.2641950175        3.7468098018
 C       -11.3829362682       -0.1932457945        3.6446064967
 O       -10.6854751049       -0.2508636048        4.6535416784
 C       -10.5754370113       -0.4243397157        2.2452599565
 C        -9.7331124118        0.8126259047        1.9984190121
 O        -9.9027802734        1.4548934343        0.9398399347
 C        -8.6514104991        1.1284729454        2.9349696495
 C        -7.7584045970        2.3644713216        2.5984568523
 C        -7.9607955520        3.3139488679        3.7920875208
 O        -9.1027378234        3.7556014452        3.8719759343
 C        -6.8767921943        3.2423011392        4.9132451799
 C        -6.2706002678        4.9648048671        4.8559155135
 O        -5.4035662767        5.1099044099        4.1073219239
 C        -7.1693046088        6.1356629637        5.4172267819
 C        -7.5928396574        2.9298531844        6.2533054147
 C        -5.7697190697        2.2324988979        4.5783527182
 C        -9.8509656401       -1.7526906371        2.4480315018
 C       -11.6600270024       -0.6961051854        1.1260990832
 C       -11.8708364909        4.0397409511        5.0553912531
 C       -14.4162065520        4.1279040187        4.6202338718
 C        -8.9613307408        8.6916316578        0.2198010590
 C       -11.0420058562        7.7909185394       -1.0396487684
 C       -10.7931701875        2.3535425095       -3.3603035785
 C        -8.3104647734        2.3243273933       -3.3823900119
 C        -5.9474734314        3.6306970321       -7.5241420358
 C        -7.1769179628        2.7349317197       -9.6267644727
 H        -5.8813000758        0.4338524348       -9.3096225845
 H        -5.9235192797       -0.7345079341       -8.0530783424
 H        -4.9369745583        0.5105139022       -7.9367378186
 H        -7.9075947289        4.7971522547       -6.3344905662
 H        -7.8232811567        3.4255672932       -5.3124289928
 H       -10.5794332918        3.6192139849       -5.5971447191
 H        -9.8647330845        5.3664072869       -5.9508184478
 H        -7.0935063284        4.3590442112       -1.6799371517
 H        -7.9266027067        3.8635219141       -0.1967796163
 H        -8.5333589621        6.6092702710       -1.5007237192
 H        -7.5104267676        6.4109294796       -0.0714468165
 H       -12.2146050277        6.2197459647        0.8142699727
 H       -13.2393414478        7.5787339062        1.4609713270
 H       -13.3683478196        6.6436673149        3.5565414544
 H       -11.6110619148        6.2893860275        3.8116602252
 H       -14.6187578309        1.2822669611        4.3101275161
 H       -13.3270203582        1.3033567807        5.3064874424
 H       -13.3729829946       -0.3142542907        2.7334676220
 H       -13.1771062030       -1.0398305092        4.4583264347
 H        -8.0565251188        0.2962468592        3.1560092770
 H        -9.0575459449        1.4500681366        3.8985391694
 H        -8.2744983320        2.7661963598        1.7577677796
 H        -6.7274051767        2.1212202412        2.3760666522
 H        -6.9487602425        6.9926368931        4.6759652748
 H        -6.9531172312        6.4405633013        6.4279917386
 H        -8.1784609327        5.6899667203        5.2048282713
 H        -7.2366692413        3.4676066597        7.1755616632
 H        -7.5100311707        1.8602101389        6.5113748453
 H        -8.6407792417        3.0924265119        5.9780332863
 H        -6.2078084774        1.2315942478        4.5355081167
 H        -5.0322372016        2.0089766222        5.4080270043
 H        -5.2084398857        2.5448479025        3.6684548401
 H       -10.5292954801       -2.5572217982        2.4479890212
 H        -9.2408762329       -1.7706940301        3.3550393436
 H        -9.2759799263       -1.8485150770        1.4236627346
 H       -12.2980830664       -1.5672731302        1.4624524097
 H       -11.0329246431       -1.0092861925        0.3149305238
 H       -12.2481144076        0.1567389198        0.8174981235
 H       -12.3997024535        3.6884223026        5.9939446184
 H       -11.4594413569        5.0559490954        5.2113366179
 H       -10.9900111670        3.4538216937        4.9963965131
 H       -14.5798101742        3.5827341987        5.4943640238
 H       -15.2679139212        4.0387015776        3.9702351911
 H       -14.3266397308        5.1795462731        4.8556259967
 H        -9.2998495585        9.6345074423       -0.1625443609
 H        -8.1868048020        8.3980845932       -0.4950513735
 H        -8.4426263378        8.8286154669        1.1759285757
 H       -11.4932943615        6.9068493415       -1.1492687510
 H       -10.4260587724        8.0793097429       -1.8891502637
 H       -11.7022280574        8.6167641371       -0.9032869047
 H       -10.6365293265        1.4863624731       -2.6463558845
 H       -10.8373962091        2.0698023218       -4.4276583875
 H       -11.5982126792        2.8590905055       -2.8916763916
 H        -8.5397095419        1.3447643208       -2.7816426741
 H        -7.3271182100        2.6343674786       -3.0320972001
 H        -8.3807419559        1.9914146551       -4.4238412132
 H        -6.1093604050        4.7087547653       -7.6090525186
 H        -5.0764160540        3.4785461139       -8.1902271151
 H        -5.7226421411        3.5095282013       -6.4336643584
 H        -7.7655866056        1.9443879074       -9.9136431866
 H        -6.1594873838        2.6308514223      -10.0622816506
 H        -7.6599235496        3.5571773556      -10.1063502350
 Na      -10.4523245222        3.5495771269        1.4710856266
