117

 C        -5.7973045566        0.1683840117       -8.1747719498
 C        -6.8386687437        1.0297302923       -7.4663738382
 O        -7.3676244226        0.7188022004       -6.4484889884
 C        -7.0110417567        2.6151904479       -8.1239299561
 C        -8.3578029222        3.2663562353       -7.4753939386
 O        -9.4618072950        2.9800628828       -7.9056707141
 C        -8.2686106134        4.1826460179       -6.3586753639
 C        -9.5227637111        3.7676452743       -5.4451441221
 C        -9.2959349040        4.2194012114       -4.0687824919
 O        -9.1785372661        5.4277149986       -3.8221077309
 C        -9.5457455859        3.1393214349       -2.8243437998
 C        -9.3823050360        3.8353563576       -1.3676713043
 O       -10.4493895710        3.9208002449       -0.7437867200
 C        -8.0812932244        4.3903234185       -0.8630806658
 C        -8.1734589244        5.8935409766       -0.9087416686
 C        -9.2973601370        6.2866976367        0.2429758453
 O        -9.6887586342        5.6402683398        1.2375264217
 C        -9.9920743609        7.6692400680        0.0460274718
 C       -10.9149815307        7.8857085525        1.2809526942
 O       -10.6028589770        8.6764091958        2.1412201320
 C       -12.2040512499        6.9950383667        1.6190075265
 C       -12.3882118709        6.5548349508        3.0406324219
 C       -13.0471094071        4.9560895240        2.9415725448
 O       -13.2069115183        4.4991135005        1.8496468824
 C       -13.2279559627        3.9068381450        4.2544041043
 C       -13.0979040284        2.5135669502        3.4446381468
 O       -12.3141576554        2.3607478483        2.4931289387
 C       -13.7817352524        1.1713054237        4.1599781238
 C       -13.1647034561       -0.1485553117        3.6829376024
 C       -11.5769548026       -0.2745579467        3.7636230536
 O       -10.8762726727        0.0028302172        4.7118813951
 C       -10.7904606309       -0.5836000800        2.3143707114
 C        -9.9049492431        0.7444799275        2.0736190052
 O       -10.2041929516        1.4678915013        1.1319660345
 C        -8.6645032635        0.8994837426        2.8908363182
 C        -7.9502266345        2.2954653402        2.5393451206
 C        -8.0852537814        3.2545697172        3.6932945746
 O        -9.0012801270        4.1232852442        3.7139948201
 C        -6.8446951965        3.3728641821        4.6525588382
 C        -6.1697085760        4.8222015199        4.4340030549
 O        -5.2335164740        4.8407650190        3.6310701738
 C        -6.8618903330        5.9616248086        5.2729306678
 C        -7.3417503552        3.4377608747        6.1627890258
 C        -5.5712114321        2.4226478321        4.5706661416
 C        -9.6784344915       -1.6999328337        2.6591163262
 C       -11.6005616856       -0.7180334041        0.9592383518
 C       -12.1026888195        3.8970667334        5.2012175866
 C       -14.6121147844        3.9219528046        4.9658014341
 C        -9.0600653362        8.9064519255        0.0196319200
 C       -10.7467953681        7.6070607926       -1.3545419741
 C       -10.9840940684        2.5750337724       -2.7892904326
 C        -8.3609093515        1.9946274781       -3.0406655743
 C        -5.7326862993        3.3393018062       -7.7033530143
 C        -6.9844883881        2.6401761723       -9.6009585518
 H        -5.3042771749        0.6138908108       -9.0252499899
 H        -6.4906494916       -0.5123754616       -8.8071220315
 H        -5.1820016230       -0.6383152159       -7.6404416403
 H        -8.3346462789        5.2500913851       -6.7476833162
 H        -7.4158954299        3.9853338002       -5.7159737952
 H        -9.7258001518        2.7027489891       -5.4718924902
 H       -10.3286687224        4.3980166545       -5.9297729888
 H        -7.2811059640        4.3244189953       -1.6254917927
 H        -7.6326312420        4.0442668599        0.0699053212
 H        -8.5810790529        6.3295120301       -1.8757739127
 H        -7.2053997647        6.2750184225       -0.5606716280
 H       -12.2913443580        6.2291536069        0.8826590652
 H       -13.0113195663        7.6076310471        1.3914091751
 H       -13.0190572547        7.3076421330        3.5054719083
 H       -11.4703830355        6.4767532455        3.5427995753
 H       -14.8911734964        1.0610031871        4.0164470381
 H       -13.7820225162        1.3118478215        5.3271760445
 H       -13.5868275463       -0.3072049673        2.6942323339
 H       -13.4632263728       -0.8429967233        4.5010247182
 H        -7.8769237278        0.1519134860        2.5425749352
 H        -8.7671534866        0.7433950155        3.9759377169
 H        -8.4651711767        2.6624726628        1.6113468068
 H        -6.8922908772        1.9775377948        2.3608397549
 H        -6.6075308363        6.8875301705        4.8822918256
 H        -6.3480069398        5.7989130949        6.2735529273
 H        -7.9261777492        5.8255649623        5.3343220978
 H        -6.4304930252        3.3520880883        6.7105681723
 H        -7.8592335951        2.5495648315        6.4669998500
 H        -7.9871325605        4.2610807602        6.4414600871
 H        -5.5767793124        1.3319772021        4.9771362546
 H        -4.8065880942        2.8575732688        5.2149340919
 H        -5.1260019476        2.5427132662        3.5522207498
 H       -10.2211327538       -2.6761757555        2.6309588543
 H        -9.3085831979       -1.4486342269        3.6570180981
 H        -8.9444119399       -1.7797610937        2.0085064058
 H       -12.3845732391       -1.4147587994        1.1391577031
 H       -10.9019992216       -0.9977344826        0.1507085978
 H       -12.0982870580        0.2617550675        0.8146063542
 H       -12.3367581869        4.0849805821        6.1939268224
 H       -11.2636184463        4.4815365414        4.8953563237
 H       -11.6486725542        2.8729845878        5.1693939075
 H       -14.5418436375        2.8958360403        5.5253413557
 H       -15.4869672209        3.9704601533        4.2462295227
 H       -14.7491324508        4.6664180325        5.8148118646
 H        -9.6257100910        9.8448622418        0.1138854743
 H        -8.3800410832        9.0719821143       -0.7741753682
 H        -8.3781259166        8.6803788954        0.8713085566
 H       -11.0173270398        6.4924702271       -1.4287162359
 H       -10.2431767748        8.1355334874       -2.1243820841
 H       -11.6824693723        8.2718221074       -1.2670309719
 H       -11.2077077603        2.0896509665       -1.9395607289
 H       -11.0530934780        1.9681508947       -3.6868686058
 H       -11.7479223567        3.4394676411       -2.7209191519
 H        -8.0511082450        1.5060788377       -2.1905352838
 H        -7.3868209804        2.4191161256       -3.3624730369
 H        -8.7260664107        1.3264894378       -3.7715590921
 H        -5.4630908227        4.2965371724       -8.1232686804
 H        -4.8929365203        2.7395460369       -7.9718741012
 H        -5.7491227484        3.4341412350       -6.6667096245
 H        -7.7069594962        1.8758881993      -10.0838008493
 H        -6.0069137758        2.3433811448       -9.9168939302
 H        -7.2433428058        3.6111573777      -10.0977009458
 Na      -10.5683695589        3.6969961512        2.0955746250
