117

 C        -5.8864624300       -0.1047958470       -8.2449319314
 C        -6.8424183889        0.9551459468       -7.4758768582
 O        -7.5872837223        0.8620545986       -6.4834270580
 C        -6.8526968259        2.4162398163       -8.0506640220
 C        -8.1730872452        3.1645175536       -7.6766611701
 O        -9.0962155293        3.2655797413       -8.4592305832
 C        -8.4090997938        3.9366335372       -6.3616126023
 C        -9.1761842420        3.2072859423       -5.1679316236
 C        -9.3491172111        4.0386783568       -3.7627323050
 O        -9.1305675273        5.2381651767       -3.7245761867
 C        -9.7791083936        3.1310927013       -2.5827215282
 C        -9.5773355166        3.8164706378       -1.0998027583
 O       -10.4129221955        3.6397728406       -0.2401359559
 C        -8.0305090242        4.4368128740       -0.9023257719
 C        -7.9637828289        6.0149159106       -0.7978539176
 C        -9.1368318000        6.4090397307        0.1663992689
 O        -9.3055063998        5.8101558486        1.1816582105
 C       -10.0270929283        7.6946969586        0.0031678793
 C       -10.9588018824        7.9069452299        1.3034087094
 O       -10.6923503578        8.8280992700        2.0671050284
 C       -12.1048397872        7.0390877824        1.5963863763
 C       -12.2528195808        6.4151172896        3.0335603736
 C       -13.1022637824        5.0504899143        2.9390826287
 O       -13.4991790982        4.5370036994        1.9020339669
 C       -13.2541068126        4.0880711051        4.1683492883
 C       -13.1255437551        2.4681092757        3.5937606273
 O       -12.2497863069        2.3279477620        2.8047070618
 C       -13.8523386972        1.2248179829        4.1466521328
 C       -13.3333722633       -0.0124715511        3.3943734672
 C       -11.7889324414       -0.0279731543        3.5996156635
 O       -11.3466609073        0.3434484918        4.6585417192
 C       -10.8638354300       -0.7057752804        2.3805460240
 C        -9.9114970604        0.6268776093        2.0502115543
 O       -10.2702335590        1.4789519457        1.3111341951
 C        -8.4753885654        0.8760539194        2.8463413023
 C        -7.8238980796        2.2436477716        2.5202509233
 C        -7.8565855872        3.2741664838        3.6318944645
 O        -8.7550075092        4.0691191012        3.8142691523
 C        -6.6431485874        3.5218883856        4.6599930783
 C        -6.0056827814        4.9991342039        4.0931412256
 O        -5.2866605756        4.8794027358        3.1063526364
 C        -6.2024481380        6.4329973807        4.8478528345
 C        -7.3152806954        3.4698847419        6.0944818696
 C        -5.7445890870        2.2754342562        4.5075244324
 C       -10.0206431284       -1.9923150121        2.7872513327
 C       -11.7343711089       -1.2202664803        1.1870752925
 C       -12.1564399932        4.1113787858        5.4197989176
 C       -14.6104549867        4.2828841877        4.8335724347
 C        -9.0758115419        8.9689789985       -0.2529984464
 C       -10.8790592402        7.4962708877       -1.3201742507
 C       -11.2409987969        2.5143376542       -2.8614577666
 C        -8.6745403286        1.9597994072       -2.4887176483
 C        -5.4745429251        3.1325472889       -7.7041282569
 C        -7.0720556020        2.2720620638       -9.6567134361
 H        -4.8054154231        0.1523648658       -8.0093183684
 H        -5.8441466000       -0.2123680578       -9.3078849936
 H        -6.0457969098       -1.0938588058       -7.8495004942
 H        -8.9834704653        4.7615705330       -6.7460577097
 H        -7.5437285176        4.1771265832       -5.7516735986
 H        -8.5724514648        2.3014324432       -4.8938030677
 H       -10.1268787871        2.8219989982       -5.5296233633
 H        -7.2195189423        4.0972053073       -1.5208579377
 H        -7.7974321975        4.1502805388        0.1540506490
 H        -8.3725755077        6.5108559558       -1.6343479263
 H        -7.0123857459        6.4760507411       -0.4269665929
 H       -12.0113194906        6.1931430379        0.8458018985
 H       -12.9995328031        7.5823129722        1.1325328270
 H       -12.8305224001        7.0328230685        3.7079580027
 H       -11.1935356378        6.2807788091        3.4074955913
 H       -14.9117500285        1.4292002691        4.2381146001
 H       -13.5754619199        1.2426937471        5.1512753530
 H       -13.4319659703        0.3841735707        2.3625319239
 H       -13.9184274371       -0.9056109709        3.7019139305
 H        -7.7471233002        0.1308518853        2.5517895409
 H        -8.5639305765        0.7847947850        3.9117380622
 H        -8.3622387310        2.6183358899        1.6448427287
 H        -6.8304592005        1.9238846523        2.2268516703
 H        -5.3830259792        7.1290617031        4.4874439110
 H        -6.5105158062        6.3228731697        5.8680055307
 H        -7.0938433949        6.7212217346        4.2867135134
 H        -6.5376072279        3.7642309369        6.7954974028
 H        -7.6441657268        2.4696443635        6.4402104315
 H        -8.1444844137        4.1669327959        6.1235118690
 H        -6.3831018156        1.4065376424        4.3929657691
 H        -5.0329434984        2.0571681772        5.3941548840
 H        -5.1030006338        2.3101463970        3.6385587717
 H       -10.8090672845       -2.6891467803        3.0177588129
 H        -9.3514219001       -1.7626313395        3.6521076034
 H        -9.3195666306       -2.4385557110        1.9434932140
 H       -12.2180621481       -2.1582661172        1.5035948881
 H       -11.1766444347       -1.3115470677        0.2684329909
 H       -12.5627464415       -0.5569925953        1.0805182288
 H       -12.0970682484        5.1495338987        5.8577596515
 H       -11.1611983622        3.8257684140        5.0506267280
 H       -12.3816208082        3.4395186860        6.2253578986
 H       -14.7623251093        3.8099047057        5.7531151182
 H       -15.3131712720        4.0990359927        4.0495621643
 H       -14.7062457595        5.3499912606        5.0840190776
 H        -9.7360561850        9.8326837532       -0.2750986892
 H        -8.5181307612        9.0259270535       -1.2421644311
 H        -8.2689071553        9.0042945057        0.4247262329
 H       -11.5568352638        6.7541942591       -1.0334110824
 H       -10.1903390893        7.3187135291       -2.2090839028
 H       -11.3438248070        8.3693957098       -1.5820998506
 H       -11.5281516524        2.0064738271       -1.8008273514
 H       -11.2285329236        1.7694073698       -3.7235293191
 H       -11.9697557623        3.2950342178       -2.9363848665
 H        -8.5821171040        1.6256640112       -1.4122862011
 H        -7.6737838191        2.2235339772       -2.7088135375
 H        -8.8982423914        1.0955022551       -3.2052683552
 H        -5.4174802666        4.1897530163       -7.9775600418
 H        -4.7137213301        2.6736947483       -8.3536093652
 H        -5.1449561915        2.9950263016       -6.6294631577
 H        -8.0232688678        1.8870947607       -9.8670754785
 H        -6.3758828238        1.5137265059      -10.0834228847
 H        -6.9414872305        3.1626966594      -10.2207446579
 Na      -10.6530494573        4.1370608349        2.1150518629
