117

 C        -6.1109041820       -0.1414646237       -7.9376892664
 C        -6.8721596703        0.9671628581       -7.4512649021
 O        -7.5722276844        0.6936009014       -6.5241849434
 C        -6.8845053362        2.3626868306       -8.2185989193
 C        -8.2316737382        3.1377243780       -7.7119323146
 O        -9.0069531850        3.4293184683       -8.5890662653
 C        -8.2962060383        3.8573127844       -6.2242793317
 C        -8.8847537583        3.0329657867       -5.0317808514
 C        -9.1706187638        3.8730235370       -3.7917480493
 O        -9.1627518230        5.0906450377       -3.7103985833
 C        -9.7300304359        3.0559693255       -2.4438301885
 C        -9.5042699141        3.7862640375       -1.1409977577
 O       -10.3246413142        3.6498907074       -0.2111827924
 C        -8.2947446539        4.4609531667       -1.0116322305
 C        -8.1859661289        5.9151429462       -0.7963653234
 C        -9.0747945305        6.4940542075        0.2967343513
 O        -9.1645956572        5.9310882466        1.4029652682
 C       -10.0538542412        7.7275251724        0.0010082365
 C       -10.8843317830        7.9395875206        1.3377578811
 O       -10.6753812491        8.9158193650        2.0169235617
 C       -12.0604154576        6.8486411176        1.5465810363
 C       -12.2456297730        6.2447761735        2.9461531160
 C       -13.0351471206        4.8701801892        2.9544316866
 O       -13.6961306991        4.6596776609        1.9719899379
 C       -13.2479513584        4.1060252240        4.2151780578
 C       -12.9941466139        2.5752675661        3.7765283425
 O       -12.1219603217        2.4365303389        2.8966997205
 C       -13.8793009018        1.3834868291        4.1420290575
 C       -13.3703132198        0.2124201407        3.2628669699
 C       -11.8599799344       -0.1101257003        3.5119849725
 O       -11.3408177180        0.3390716323        4.4943007418
 C       -10.9185460743       -0.6851000109        2.4765574841
 C        -9.8760740793        0.6264790435        2.0914465545
 O       -10.2379020309        1.5078284944        1.3714724510
 C        -8.5587135089        0.8683025746        2.8775316735
 C        -7.8139422715        2.2576430395        2.5546021185
 C        -7.9035940960        3.3541265694        3.5702040013
 O        -8.9526756278        4.0031990582        3.6947281751
 C        -6.6773242508        3.5494007917        4.5489046550
 C        -5.8702485107        4.8715792871        4.0136766569
 O        -5.3351262131        4.8304640898        2.8967031937
 C        -6.0173890167        6.2250674172        4.6294169709
 C        -7.1780703976        3.6846537419        5.9439923319
 C        -5.6166083069        2.3134875737        4.5411864787
 C       -10.2112110437       -1.8886625715        3.1310074238
 C       -11.7402233767       -1.2574465515        1.2282940580
 C       -12.2062342297        4.3976565109        5.3239597421
 C       -14.6407234870        4.5065685993        4.6457431378
 C        -9.1841395199        8.9481626074       -0.3480232296
 C       -11.0016990413        7.5074168613       -1.2023282167
 C       -11.1807758418        2.5909174259       -2.6720904608
 C        -8.9117379067        1.7296819629       -2.1842443894
 C        -5.6184647852        3.0775414392       -7.8179241001
 C        -6.8306704705        2.2121576442       -9.7321642973
 H        -5.1443954268       -0.1900899096       -7.5934545457
 H        -5.8947610318       -0.0552985285       -8.9596757615
 H        -6.6253750111       -1.0314830156       -7.7123561850
 H        -8.9492389540        4.7455113331       -6.3976938215
 H        -7.3690483854        4.0691459380       -5.8292895098
 H        -8.4171752559        2.1189890892       -4.7588782351
 H        -9.9202036748        2.6832669711       -5.3691845626
 H        -7.7357698740        4.3486909121       -1.8926844922
 H        -7.6765485862        4.0106779891       -0.2015320672
 H        -8.4582253886        6.4582976171       -1.6632950351
 H        -7.2267955499        6.2437490804       -0.3947407871
 H       -12.1158815632        6.1016567430        0.6464574832
 H       -12.8966269583        7.5150104969        1.2584577262
 H       -12.8509032573        6.9817729936        3.5046593693
 H       -11.1771643911        6.1722758314        3.3927224224
 H       -14.8660768939        1.7263573146        4.0654528496
 H       -13.7929180181        1.1488683845        5.2357114725
 H       -13.5691101653        0.4435518469        2.2574773777
 H       -13.9585902361       -0.5655364710        3.7039024102
 H        -7.8731308046       -0.0813575435        2.8865644393
 H        -8.8692815947        0.9773971697        3.8700524454
 H        -8.2754421902        2.5925021657        1.6244500406
 H        -6.8238082960        1.9626882283        2.2945801067
 H        -5.0521985948        6.6707111351        4.4433305138
 H        -6.5029488038        6.1644651267        5.6800823499
 H        -6.7087284304        6.7684259913        3.9591555195
 H        -6.4191404915        4.1182192145        6.5828678529
 H        -7.3353036900        2.6208220057        6.3199453340
 H        -8.1418685877        4.2562628464        6.0417419843
 H        -6.0155077008        1.2276042179        4.4461667043
 H        -4.9645856940        2.4302456717        5.4488721441
 H        -4.9027856513        2.3935027346        3.6914865423
 H       -11.0548392633       -2.5458037681        3.5637560310
 H        -9.4818480221       -1.5221661456        3.8963902709
 H        -9.6338179312       -2.3882758472        2.4610211754
 H       -12.4808651560       -1.9346200381        1.5900283916
 H       -11.0030341116       -1.7490922740        0.5455554780
 H       -12.3012585523       -0.4541569813        0.6991374967
 H       -11.7880390904        5.3843098877        5.1661291724
 H       -11.3632480211        3.7033960152        5.1488977531
 H       -12.4979257685        4.3386046166        6.4117668597
 H       -15.0030216966        4.1680855560        5.6022527762
 H       -15.1655305910        4.1899467233        3.8103973990
 H       -14.7205823281        5.5394901689        4.7849904743
 H        -9.8290077026        9.7906241625       -0.6222725358
 H        -8.5391915718        8.7858496661       -1.2174338716
 H        -8.4674493438        9.1415385990        0.3941756357
 H       -11.8372081589        6.9904457535       -0.8231105051
 H       -10.4770224691        7.0319093424       -1.9577890702
 H       -11.3300505980        8.4192173834       -1.6057765421
 H       -11.4021076849        1.9840567243       -1.8764465014
 H       -11.0669773098        1.9414681561       -3.5302257202
 H       -12.0141330159        3.3476326810       -2.7587008572
 H        -9.0999844172        1.3950139660       -1.1556243108
 H        -7.8154124114        2.0009823791       -2.1091180736
 H        -8.8950428444        0.9159794062       -2.9740303354
 H        -5.7674643725        4.1965908435       -7.9757742331
 H        -4.6853872317        2.8384424050       -8.3555845968
 H        -5.4623998430        2.9136978861       -6.7170543401
 H        -7.6074043831        1.5032346159      -10.1259784461
 H        -5.9199934032        1.7356739413       -9.9610536463
 H        -6.8366537175        3.0997117364      -10.2794376001
 Na      -10.5761713441        4.1113281304        1.9854253842
