117

 C        -6.1061277296       -0.2982023199       -7.9285582846
 C        -7.1415823791        0.7161554987       -7.3551417341
 O        -7.9565796562        0.5435361548       -6.5132236751
 C        -6.8530400844        2.2803016647       -7.9638023912
 C        -8.0252861272        3.2244977523       -7.5040716832
 O        -8.8000877096        3.6350460045       -8.3340594018
 C        -8.3230134258        3.5540775339       -5.9431242596
 C        -8.4173834308        2.4556672993       -4.8814906796
 C        -9.0032564629        3.3126624016       -3.6277724552
 O        -9.0646406489        4.5133175776       -3.8085117061
 C        -9.6296282578        2.7213285698       -2.4396950534
 C        -9.4027641785        3.7296843156       -1.1825143072
 O       -10.4495402191        4.1372905060       -0.6102514111
 C        -8.1132717002        4.3814532789       -0.8731214966
 C        -8.2136899958        5.8439789864       -0.9514144035
 C        -9.1858878483        6.4918716566        0.1562763148
 O        -9.0205324897        6.1967924475        1.3206586329
 C       -10.1157825748        7.8630726525       -0.1512930456
 C       -11.1243975950        7.9305938618        1.1374445784
 O       -10.9766096203        8.7405863167        2.0258100826
 C       -12.1962518736        6.9689422945        1.4129751646
 C       -11.9950193369        6.4040682880        2.8917099792
 C       -13.1928513359        5.3265339296        2.9698976365
 O       -13.8775679190        5.1722960636        1.9881316515
 C       -13.4255378420        4.3846160896        4.3676306012
 C       -12.8521574141        3.0564668568        3.8558070202
 O       -11.7300011848        3.0176158915        3.3941157656
 C       -13.9479531764        1.9663036921        3.8747725520
 C       -13.4117297331        0.7846289324        3.1791755654
 C       -12.0238889346        0.2243871095        3.7522388300
 O       -11.6570590616        0.4674685540        4.8485411476
 C       -10.9379527436       -0.5167981583        2.6907297435
 C       -10.0428162273        0.6944434363        2.2797301405
 O       -10.0977739732        1.2326341000        1.2110487117
 C        -8.7946955560        0.9102825246        3.2138287956
 C        -7.7422657904        1.8565707896        2.6512381076
 C        -7.7966199840        3.1825166766        3.4424422172
 O        -8.8567892226        3.7775139983        3.6302998175
 C        -6.5845336895        3.5465734951        4.3673934465
 C        -5.8423640120        4.6927266418        3.4233849854
 O        -5.6826256409        4.4228939171        2.2064367946
 C        -5.3532241153        6.1362316382        3.8735958960
 C        -7.2283301909        4.0059659436        5.6654152331
 C        -5.5117372261        2.3683695262        4.5855233756
 C       -10.1916782881       -1.6344710028        3.4401568850
 C       -11.6056250599       -1.2645148274        1.4561861119
 C       -12.5147329396        5.0121278548        5.4610374329
 C       -14.9088721619        4.4264366859        4.7779806847
 C        -9.3278923126        9.1687371330       -0.2130077419
 C       -10.9510384141        7.6086906297       -1.3020016686
 C       -11.1195133183        2.6595484459       -2.7359181820
 C        -9.2316861598        1.1272650591       -2.1328761782
 C        -5.4410900083        2.8099307780       -7.5624750091
 C        -7.0887873899        2.0451200839       -9.4238446936
 H        -5.3652498950       -0.3667399787       -7.0365956456
 H        -5.3486973957        0.0802204308       -8.6448073628
 H        -6.5466167687       -1.3387266448       -8.0290075526
 H        -9.3652978835        3.9673209938       -5.8457419201
 H        -7.5863329729        4.2836009042       -5.5589666784
 H        -7.5315978575        1.8622664240       -4.5965826667
 H        -9.1374165648        1.6554548270       -5.1070797620
 H        -7.3209657563        4.1584314055       -1.5545795524
 H        -7.7498288579        4.2746990094        0.2118083996
 H        -8.7108993200        6.1464284802       -1.8442092553
 H        -7.2159460537        6.4324695227       -0.7868150789
 H       -11.9551544133        6.0712743162        0.7632358530
 H       -13.2173646070        7.3104849320        1.2517860170
 H       -12.1809986886        7.2195623403        3.5036006808
 H       -10.9909078220        5.9520991176        3.0375880528
 H       -14.8663808922        2.4097497482        3.5326467126
 H       -14.1252330596        1.9083522518        4.9338635339
 H       -13.4056100579        1.1277959011        2.0831742892
 H       -14.1739667668       -0.0560749190        3.3107063771
 H        -8.4770216545       -0.1110229900        3.4824232328
 H        -9.1221056086        1.3632349892        4.1303200400
 H        -7.9324943566        1.8884849196        1.5658461345
 H        -6.8124911247        1.3182126645        2.6276952098
 H        -4.4899745200        6.1838402642        4.5138794607
 H        -6.3565532711        6.5767841470        4.1321367569
 H        -5.0550042847        6.5348334947        2.9649524882
 H        -6.4326447986        4.1557877934        6.3158097580
 H        -7.9362870481        3.2564549566        6.0536390049
 H        -7.7235281891        4.9411706527        5.5677846228
 H        -5.9269812466        1.5706460811        5.2310320181
 H        -4.4809523315        2.7025899214        4.8638988242
 H        -5.4850461809        1.7616503389        3.7197752801
 H       -10.9251292512       -2.5125294940        3.4427694542
 H       -10.0613088270       -1.5052765673        4.5698067810
 H        -9.2327895060       -1.8341417461        3.0679620158
 H       -12.7003647855       -1.1567900885        1.4142998744
 H       -11.3370746799       -2.3267946963        1.4251386315
 H       -11.2352251833       -0.8081184125        0.5296884370
 H       -12.5343388262        6.0592214406        5.7421738932
 H       -11.5137228279        4.8109631252        5.0999809903
 H       -12.7023988420        4.4000302098        6.3119038649
 H       -15.0612782707        3.6374924098        5.5728918865
 H       -15.6060052642        4.1774412650        3.9664198677
 H       -15.0483828956        5.2799523653        5.4730772941
 H       -10.0060751318       10.0016001867       -0.5226250363
 H        -8.5487808854        9.0072446641       -1.0523412955
 H        -8.7692609935        9.4725611913        0.6212990789
 H       -11.4556391711        6.5495600024       -1.1719818156
 H       -10.2600118576        7.4892778579       -2.1600332319
 H       -11.7775288012        8.3072939823       -1.4598862957
 H       -11.6272813223        2.3177621410       -1.8295572759
 H       -11.2870376139        1.7678270253       -3.4360578839
 H       -11.5339274209        3.5771131382       -3.3041918647
 H        -9.9083393741        0.6597603249       -1.4293402906
 H        -8.2223229724        0.9740325707       -1.9373399374
 H        -9.3182352355        0.5151832876       -3.0843501033
 H        -5.2421789766        3.7909153981       -7.9449925886
 H        -4.7126896913        2.1093530604       -7.8420346026
 H        -5.3556957344        2.9095598053       -6.4855218914
 H        -7.7330331928        1.1374631125       -9.5756030275
 H        -6.1627633095        1.8307323008      -10.0456065133
 H        -7.6013659172        2.8530335811       -9.9389926127
 Na      -10.1084841507        3.5502319052        1.6620517121
