117

 C        -5.9344230358       -0.5802819856       -7.8007852300
 C        -7.1017269007        0.4887374852       -7.4922787384
 O        -8.0503799408        0.0945970115       -6.7820507391
 C        -6.9949341237        1.9582885295       -7.7760211398
 C        -8.0657163059        3.0823166260       -7.3059097701
 O        -8.6465648065        3.6861954491       -8.1824705977
 C        -8.2830600801        3.5266796490       -5.8238350183
 C        -8.3557659368        2.5442435519       -4.6226608430
 C        -8.9180398193        3.3594198925       -3.5369149225
 O        -8.8317983833        4.5817508206       -3.4190903146
 C        -9.6995351264        2.6911621820       -2.4171749320
 C        -9.6496963439        3.7963117623       -1.2495000821
 O       -10.5944614382        3.9636165429       -0.5481569063
 C        -8.2613169864        4.3086601119       -0.8959037357
 C        -8.2314021664        5.8939921208       -1.1103209836
 C        -9.2071053470        6.4585633412       -0.0062964648
 O        -9.3418735170        5.8828302665        1.0520554554
 C        -9.9510589961        7.8032316233       -0.1594746325
 C       -10.9924515887        8.0355083494        0.9770402323
 O       -10.8002669598        8.9543514555        1.7595325601
 C       -12.0513808113        6.9369025224        1.2653904091
 C       -12.3361581304        6.4490771415        2.7456647970
 C       -13.5797858938        5.5618909453        3.0781741852
 O       -14.4883027235        5.1807494076        2.3958189734
 C       -13.4875690952        4.6943998961        4.4976593283
 C       -12.8996436746        3.4028322411        3.8244228710
 O       -11.6871277741        3.2224847843        3.5627219708
 C       -13.8572874038        2.1429154281        3.6783022489
 C       -13.2040667231        0.9545731882        2.9517692690
 C       -12.0549773077        0.3158193641        3.7558936894
 O       -11.8648571214        0.3358253054        4.9541525719
 C       -10.9950331224       -0.6416236437        2.7783234081
 C        -9.9528148180        0.4338901887        2.3175892571
 O       -10.1411551078        1.1206663867        1.2837456135
 C        -8.8562828436        0.8669917123        3.3756885072
 C        -7.6730854826        1.7207965449        2.7292347829
 C        -7.7125805714        3.0535703708        3.4375406311
 O        -8.5564508310        3.9224097324        3.3136521870
 C        -6.3740332930        3.5685586762        4.2225706740
 C        -5.8035801276        4.4603891728        3.0677996251
 O        -5.9817105626        4.1961995417        1.9379538929
 C        -5.1181839144        5.7825128312        3.4423141366
 C        -6.8250305866        4.5757430041        5.5190371913
 C        -5.3953847737        2.5510928810        4.7436079579
 C       -10.3184554771       -1.7164124828        3.8030968214
 C       -11.7733508914       -1.1950885322        1.6464513724
 C       -12.6485774504        5.3201626199        5.6122653099
 C       -15.0007514404        4.6662512900        4.9919084438
 C        -9.1443804811        9.1565968203       -0.2541859970
 C       -10.7306867764        7.7191827826       -1.5104715765
 C       -11.2622762463        2.5513687589       -2.8542488532
 C        -9.0667965186        1.3812567673       -1.9615319641
 C        -5.5840010293        2.5419604407       -7.4302915861
 C        -7.0571375136        2.0494697850       -9.4294055408
 H        -5.4744160952       -0.8494776510       -6.8779932490
 H        -5.1320927869       -0.2592119250       -8.4141463452
 H        -6.3903560640       -1.4569072560       -8.1131936499
 H        -9.2670004796        3.9018375886       -5.7399344250
 H        -7.5974174924        4.3872986883       -5.6333849595
 H        -7.4084568013        2.1585652571       -4.1903284733
 H        -8.8719946075        1.6032187602       -4.6662615914
 H        -7.3185023652        4.0445794826       -1.4448326886
 H        -8.1805883400        4.2363274795        0.1637832174
 H        -8.4754425284        6.1946649275       -2.1456837301
 H        -7.2869899182        6.1969152092       -0.8269694222
 H       -11.9892250866        6.0231329837        0.7102239455
 H       -12.9652575458        7.5326888615        0.9166905719
 H       -12.3687080714        7.3393605955        3.5043330568
 H       -11.5363380469        5.7258914531        2.9807494684
 H       -14.7769986929        2.6488219976        3.1980212623
 H       -14.1292164840        1.8993072327        4.7117107354
 H       -12.7602125781        1.2676236502        2.0358198890
 H       -13.9232740440        0.1940201114        2.6636132798
 H        -8.4868695103       -0.0370980542        3.8116045351
 H        -9.4413453934        1.4103440688        4.2021756967
 H        -7.7069131377        1.7887049904        1.6468256986
 H        -6.7850192659        1.0819533920        2.8655150903
 H        -4.9062749804        5.8297523643        4.5255438179
 H        -5.6784389296        6.5513420783        2.9835893555
 H        -4.0543087412        5.7307768491        3.0353551747
 H        -5.9250932779        5.1355411572        5.9391541908
 H        -7.2961303293        3.9753687053        6.2700825919
 H        -7.5416424149        5.3643133282        5.2341290778
 H        -5.7851206519        1.5475770881        5.0334784397
 H        -5.0101443365        3.1532129988        5.5905929711
 H        -4.5479801850        2.2230151239        4.0270137941
 H       -11.0009058222       -2.3805552196        4.1999551817
 H        -9.9884449168       -1.2713509493        4.6999929452
 H        -9.3845191106       -2.2873971965        3.3386921748
 H       -12.8016238973       -1.4800070110        2.0121008950
 H       -11.4370843951       -2.1542656445        1.2504699014
 H       -11.9030904346       -0.5024926274        0.8163011351
 H       -13.4193385870        5.7939891611        6.2297839557
 H       -12.1056828290        6.2153104053        5.3114698949
 H       -12.1046287554        4.6495684773        6.2892648946
 H       -15.3446967197        3.9606113228        5.7014800470
 H       -15.5695427026        4.4448684223        4.0872326104
 H       -15.2482308943        5.6647824865        5.3111085182
 H        -9.8707315146        9.9534943880       -0.2453178728
 H        -8.5232783505        9.2329517374       -1.1159596063
 H        -8.5606454934        9.3887471069        0.6963976498
 H       -10.7955659379        6.8102606171       -1.9704267109
 H       -10.2024688564        8.2568250651       -2.3003480187
 H       -11.6733910101        8.0554245691       -1.3166689006
 H       -11.9549319799        2.1991291591       -2.0292322202
 H       -11.4840885300        1.9362582606       -3.6780333103
 H       -11.4075315794        3.4944495161       -3.1622852566
 H        -9.6389977733        0.9553304504       -1.0916093231
 H        -7.9446501697        1.3357616262       -2.0137335080
 H        -9.4058499843        0.6036366391       -2.6506803534
 H        -5.5332208252        3.5589653933       -7.8634921473
 H        -4.7453696623        1.8666736942       -7.7858272364
 H        -5.4294659528        2.6584708424       -6.3498938490
 H        -7.9972533383        1.8689416402       -9.8297729175
 H        -6.4408207311        1.2582675142       -9.8009900921
 H        -6.6681117320        3.0228224970       -9.8080988315
 Na       -9.9327060730        3.5646287508        1.5542118375
