117

 C        -5.9835561179       -0.7735173038       -7.6849352437
 C        -7.1319329902        0.3137592025       -7.4163003914
 O        -8.1162223711       -0.1431880712       -6.8579464933
 C        -6.9021394451        1.9425572963       -7.8878385373
 C        -8.0405954356        3.0008000973       -7.4008109397
 O        -8.6792060051        3.6922080817       -8.1428892546
 C        -8.1280741696        3.5827130570       -5.9502821816
 C        -8.2677551497        2.5639871337       -4.7838942219
 C        -8.9198813142        3.3928847121       -3.5232857489
 O        -8.6858874852        4.5743903150       -3.5246778313
 C        -9.7673957857        2.7862078683       -2.3644500942
 C        -9.7251102478        3.6508930374       -1.1256376879
 O       -10.7368658034        3.8263828105       -0.4513326299
 C        -8.3224174390        4.3644173466       -0.8742987437
 C        -8.2918854963        5.8886184234       -0.9769977534
 C        -9.2137296200        6.4727540432        0.0432161315
 O        -9.5975024970        5.8446712964        1.0166597415
 C        -9.9757968406        7.8725927956       -0.2072128034
 C       -10.9857672425        7.9447174103        1.0759943238
 O       -10.8988019599        8.9206707663        1.7771931554
 C       -12.1917491946        6.8633622618        1.1795764710
 C       -12.3635386311        6.4805674564        2.6400074131
 C       -13.6098564932        5.5896862029        3.0372790792
 O       -14.6000005205        5.5222923930        2.3465742808
 C       -13.6183755169        4.8656575614        4.4132490384
 C       -12.8267556363        3.4672425049        3.9672108181
 O       -11.7094259080        3.4598335288        3.5813114903
 C       -13.7870958810        2.2505172246        3.7105116099
 C       -12.9956387561        1.2190841566        2.9769451410
 C       -12.0256971558        0.2958369611        3.7716501628
 O       -11.9881491458        0.3405619199        4.9549308756
 C       -11.0751794240       -0.5877794499        2.9339089089
 C       -10.0386928628        0.5083803472        2.4219208710
 O       -10.2268446604        0.9940099699        1.3339935880
 C        -8.8798737577        0.7492682808        3.3579804428
 C        -7.6572120858        1.7057201071        2.9855202094
 C        -7.6491397907        3.1166756038        3.5245073171
 O        -8.5026735554        3.9108850597        3.1985686470
 C        -6.3371818593        3.6658290252        4.2341969769
 C        -5.7655732306        4.4492839142        3.0321643387
 O        -6.0302935053        4.0293114128        1.8760431315
 C        -4.7851927177        5.6995522619        3.1913505190
 C        -6.7368935144        4.7342503590        5.2299884312
 C        -5.3017574240        2.6077072270        4.6858805080
 C       -10.6211753305       -1.7158028365        3.8516402350
 C       -11.5316929751       -1.3037174977        1.6621416907
 C       -12.6307591549        5.4094076658        5.5286600169
 C       -14.9348360377        4.6186546445        5.0935954265
 C        -8.8103226548        8.9743635630       -0.2947229601
 C       -10.7472506239        7.6918891729       -1.6123309444
 C       -11.2618172911        2.4769319987       -2.8322308945
 C        -9.0710254403        1.5231566725       -1.8093158595
 C        -5.6485593679        2.5751414962       -7.2672399709
 C        -6.9842053351        2.0046402074       -9.4753634513
 H        -5.4984342055       -1.0433963155       -6.7164896552
 H        -5.2424001156       -0.3603396569       -8.3109306395
 H        -6.3135169862       -1.6937374400       -8.0652316902
 H        -9.0004705503        4.1999077315       -5.8656642685
 H        -7.2545675011        4.3083893558       -5.9902348941
 H        -7.2201982361        2.2407579235       -4.4901563688
 H        -8.6649989313        1.6078143859       -4.9905702399
 H        -7.5714613164        4.2929321260       -1.6402180215
 H        -7.9648327987        4.0344839052        0.0822480457
 H        -8.6282430317        6.0813795656       -1.9798361727
 H        -7.2406697256        6.3009873427       -0.8416034432
 H       -11.9269275016        5.9417845555        0.7430711643
 H       -13.0622970494        7.2956601454        0.7366645674
 H       -12.7034742903        7.3570773029        3.2358365324
 H       -11.3989408630        6.0747287357        2.9846708068
 H       -14.5778834534        2.8340660077        3.0931151245
 H       -14.2686734430        1.8352336042        4.6187843615
 H       -12.4664625712        1.5801243727        2.0807500647
 H       -13.7422049996        0.5697164772        2.4739705509
 H        -8.5454739744       -0.2134616243        3.6661545218
 H        -9.5203233969        1.1565651348        4.2555840553
 H        -7.5658001531        1.8597037431        1.8771201389
 H        -6.8052331405        1.0247487575        3.1498497934
 H        -4.6725467381        6.0235006860        4.2433003037
 H        -5.2521422588        6.4099817307        2.5244171118
 H        -3.7808941970        5.5189322266        2.8886680924
 H        -5.8373326974        5.3356870542        5.4704723027
 H        -7.2210821533        4.2999017050        6.1433697610
 H        -7.4662351079        5.4298071079        4.7472233111
 H        -5.7650040011        1.6018857598        4.8904574726
 H        -4.6885805995        2.9743912690        5.5971974697
 H        -4.6219957680        2.3848258181        3.8186520365
 H       -11.4640943269       -2.2878409426        4.1678155862
 H       -10.2013620284       -1.4957550107        4.7976613610
 H        -9.9522829574       -2.3646542213        3.3070037122
 H       -12.0809574430       -2.2675609698        1.8708490872
 H       -10.7046417505       -1.6594912690        1.0577863537
 H       -12.1715332156       -0.6960445039        1.0184959745
 H       -13.2610953271        5.8340018339        6.3647750827
 H       -12.1349358751        6.3253499909        5.1781083984
 H       -11.9972038129        4.6720305234        5.9451605976
 H       -14.8807335949        4.0391186318        5.9809984326
 H       -15.6490696421        4.0443944230        4.4736962378
 H       -15.4068501246        5.6527562121        5.2052357715
 H        -9.0298145510       10.0135637706       -0.2509235365
 H        -8.0948023931        8.7636985811       -1.1286688756
 H        -8.3445105492        8.8449118405        0.6232617060
 H       -10.7880009826        6.5729657753       -1.8742477914
 H       -10.2056068259        7.9602550370       -2.5384536886
 H       -11.7597248661        8.0470559927       -1.5668734119
 H       -11.6610978651        1.8276991507       -2.0493727409
 H       -11.2711146113        1.8525312409       -3.6727620467
 H       -11.8685779319        3.3105345855       -3.1041354993
 H        -9.6193400520        1.1866361559       -0.9169229417
 H        -8.0509016956        1.7139647321       -1.7235793244
 H        -9.1998270747        0.5775269634       -2.3886693994
 H        -5.4723607003        3.6565597143       -7.3184618848
 H        -4.7757491627        1.9533360133       -7.5718210481
 H        -5.7495543476        2.2760646481       -6.1824369455
 H        -8.0103781047        2.0827400981       -9.7109691714
 H        -6.5893079713        1.1170553220      -10.0567971269
 H        -6.5301643524        2.9242742583       -9.7733771274
 Na      -10.0209103276        3.6270971576        1.6854275685
