117

 C        -6.3496810200       -0.9355681216       -7.4462198772
 C        -7.2256177064        0.3050560134       -7.2895028035
 O        -8.4172715910        0.1816275488       -7.0138427416
 C        -6.6512505530        1.7748064396       -7.9046760996
 C        -7.8970783661        2.7513191140       -7.4945607837
 O        -8.8364051657        2.9193706994       -8.2266579143
 C        -7.9507362020        3.4485928595       -6.0628595422
 C        -8.7016840870        2.5896616087       -4.9715432060
 C        -8.9032200561        3.4267362247       -3.6717598946
 O        -8.7389626205        4.6200655292       -3.5867825366
 C        -9.5158787342        2.5754056998       -2.4703512234
 C        -9.6550269209        3.3215295682       -1.0818173208
 O       -10.6719387566        3.4474571997       -0.5066183443
 C        -8.3611792034        3.9921455898       -0.4595956726
 C        -8.4447572910        5.5004904639       -0.5300137454
 C        -9.5405157924        6.1556619053        0.3337924091
 O        -9.9547761063        5.7313494696        1.3759122813
 C       -10.1578547111        7.5949855014       -0.2105667996
 C       -11.2467803898        8.1127571924        0.8687196494
 O       -10.9719052849        8.9984551459        1.6398478248
 C       -12.5313787359        7.2695215371        1.0997245143
 C       -12.4955525234        6.8167878582        2.5355351756
 C       -13.8560976891        6.0945303898        2.9427446905
 O       -14.9421459721        6.2977975156        2.5190091062
 C       -13.4717811197        5.1337946082        4.3366118416
 C       -12.8261857253        3.9311755048        3.8134537989
 O       -11.5904026533        4.0537681077        3.7884914969
 C       -13.6036207146        2.5737695234        3.5037524143
 C       -12.8778056605        1.5162298955        2.5958518559
 C       -12.1545562779        0.4803761265        3.6553695847
 O       -12.5803132757        0.3060588281        4.7272851022
 C       -10.9255324311       -0.4252145826        3.1164857310
 C        -9.8103058927        0.5112499489        2.9777487390
 O        -9.8975597619        1.2529631226        2.0008370024
 C        -8.6661329640        0.7758001953        4.0145848045
 C        -7.4900772383        1.5770623952        3.2385453605
 C        -7.5222964340        3.0731066354        3.5043570182
 O        -8.5772586839        3.6430439276        3.4849103918
 C        -6.1505827228        3.7841134751        3.8471261144
 C        -5.4100550248        4.1680199599        2.4637207937
 O        -5.8834923843        3.8734841491        1.3950143726
 C        -4.1025276766        4.9809233153        2.5624666579
 C        -6.4959292221        5.0735288121        4.6435406651
 C        -5.1306126827        2.9029511871        4.6735776264
 C       -10.6916566775       -1.5931492889        4.0693292751
 C       -11.5613670386       -1.1456924927        1.8542432662
 C       -12.6534517467        5.9596775783        5.3506982040
 C       -14.9147343999        5.0327700784        4.9591618285
 C        -9.0411980728        8.6057626786        0.0702727498
 C       -10.7742142185        7.7650048766       -1.5611758865
 C       -10.9844804418        2.3767957872       -3.0702904567
 C        -8.6647467037        1.2412602565       -2.2195931705
 C        -5.3979309494        1.9813538661       -7.1158226134
 C        -6.5385786129        1.6912171289       -9.4257083631
 H        -5.7871068188       -1.1157581292       -6.4954069795
 H        -5.7215537246       -0.9470676142       -8.2996629517
 H        -7.0151536428       -1.7684947383       -7.3796500928
 H        -8.5969013600        4.2519053684       -6.2167742107
 H        -7.0394128116        4.0495363244       -5.8789017645
 H        -8.0203333443        1.7166180390       -4.9333091995
 H        -9.5917407475        2.0679600158       -5.3043775200
 H        -7.4409977483        3.5928921491       -1.0447199144
 H        -8.3485491598        3.8371118919        0.6360630543
 H        -8.7859836704        5.8384844452       -1.5352924470
 H        -7.5137315383        5.9557159687       -0.3727637091
 H       -12.4946179198        6.4420192466        0.3865122398
 H       -13.4880559680        7.9239718214        1.0789717652
 H       -12.1615485117        7.7088930992        3.1941334110
 H       -11.7539167795        6.0364638567        2.7210699669
 H       -14.5825169160        2.8593937436        2.9879421735
 H       -13.6927771196        2.2666907873        4.4964194516
 H       -12.3595071084        1.9310493341        1.7430143483
 H       -13.6398233680        1.0028429079        2.0264633747
 H        -8.5089470919       -0.1817399186        4.3704858386
 H        -9.1558696571        1.4148537772        4.8247656805
 H        -7.5920224228        1.4020045343        2.2020494414
 H        -6.5321868426        1.0925674505        3.4504904521
 H        -3.9359568322        5.5705126902        3.5157914642
 H        -4.0143816036        5.5245537469        1.6587085118
 H        -3.2654911656        4.2282478565        2.5335099887
 H        -5.6693968871        5.6622600677        5.0654856140
 H        -7.1112144390        4.7860931808        5.4463439223
 H        -7.1193296898        5.6424426193        3.9909127481
 H        -5.2208889103        3.0197622529        5.7954078249
 H        -4.0991487455        3.3210380444        4.4919963631
 H        -5.0165411802        1.8569658218        4.3263403911
 H       -11.4615206091       -2.3418124072        4.1364528828
 H       -10.6223409099       -1.1907490471        5.1045454139
 H        -9.7748847356       -2.2428258173        3.8974805238
 H       -10.8320615318       -1.9147063037        1.4774817131
 H       -11.7633230820       -0.6023301412        0.9735723180
 H       -12.4796116946       -1.6546289449        2.0659023386
 H       -13.4192497117        6.5617404228        5.8796937602
 H       -11.8628192707        6.5867766151        4.9379993956
 H       -12.2282032219        5.2861071191        6.0602785112
 H       -15.0184853271        4.2270954631        5.5829879856
 H       -15.6576060816        4.8523532454        4.1843362802
 H       -15.2896034739        5.9630898305        5.3455968894
 H        -9.5146137559        9.5940468306       -0.0069492338
 H        -8.2687529088        8.6165498996       -0.7170871071
 H        -8.7302232900        8.6724077020        1.1219668520
 H       -11.8119216979        7.7394484444       -1.5199835258
 H       -10.5637078708        7.0147085308       -2.3313209192
 H       -10.5111367861        8.6798048962       -1.8839557432
 H       -11.7758444818        2.1214050814       -2.2500293453
 H       -11.1007969661        1.6655980979       -3.8708761903
 H       -11.2662869884        3.3403064439       -3.4535478219
 H        -9.1413532967        0.5210480933       -1.4777876673
 H        -7.6405655897        1.3953996950       -1.8776964702
 H        -8.7354953101        0.5531389018       -3.0855349043
 H        -5.2033851681        3.0332378835       -7.0859220894
 H        -4.5171298886        1.4356666904       -7.4657940188
 H        -5.5742127958        1.7758568505       -6.0851811898
 H        -7.3719479630        1.1792367563       -9.7470071127
 H        -5.6794074323        1.0511018234       -9.7142937295
 H        -6.4488589113        2.6614511746       -9.9641280996
 Na      -10.4404965808        3.4786585831        1.9145515440
