117

 C        -6.5916557188       -1.1990997965       -7.3111512250
 C        -7.2690062614        0.1679194685       -7.4640227746
 O        -8.3726268259        0.3209685745       -6.9930456143
 C        -6.6358764212        1.6705552017       -7.7681074894
 C        -7.9314159118        2.6355677558       -7.4198923625
 O        -8.8112334215        2.6574219658       -8.2421401813
 C        -7.8935459458        3.5161157123       -6.1221717712
 C        -8.7338337071        2.7137979751       -5.0632366729
 C        -8.8465377219        3.3848889226       -3.6657544176
 O        -8.7184535537        4.5686200414       -3.5274820140
 C        -9.5696443064        2.4910464345       -2.5818344613
 C        -9.5874694883        3.1308522902       -1.1350566360
 O       -10.6574338377        3.2050256876       -0.5310045381
 C        -8.3614226382        3.9054517425       -0.4236438669
 C        -8.5143370075        5.4218297173       -0.5129243598
 C        -9.6873171606        6.1851569054        0.2443675257
 O       -10.0362558667        5.6806601359        1.2992107999
 C       -10.1174558073        7.7013955518       -0.0871436181
 C       -11.2244646773        8.1164144540        0.9866659722
 O       -11.0833722202        9.1700112011        1.5310340675
 C       -12.7039160808        7.5089941651        1.0745691052
 C       -12.6528365397        6.9511117470        2.4903698921
 C       -13.9063910614        6.2138165938        3.1609586985
 O       -15.0069489245        6.3951377746        2.6151686003
 C       -13.6864286712        5.3291025889        4.3624767154
 C       -12.8229277742        3.9879751473        3.9522852642
 O       -11.6511411200        4.0192333206        3.8082099961
 C       -13.6259779434        2.7837707958        3.3875564350
 C       -12.7515205139        1.6617553268        2.8309822250
 C       -12.2888822992        0.5199238084        3.7450106215
 O       -12.8447502829        0.3405952302        4.8165700754
 C       -11.0121102783       -0.2872536566        3.2828035121
 C        -9.7865440932        0.6983801303        2.9584277991
 O        -9.7445028214        1.3169495482        1.9187364510
 C        -8.6265887395        0.7871793013        3.9615548034
 C        -7.4059332566        1.4326722305        3.3757575445
 C        -7.3770492328        2.9424943363        3.5902175211
 O        -8.4223444530        3.5855098359        3.5398936336
 C        -6.0896444480        3.8169603887        3.7650788785
 C        -5.4264598933        4.0614794314        2.4116276620
 O        -5.9675933855        3.7628673658        1.2993586621
 C        -3.9965051530        4.6584170841        2.5524423029
 C        -6.3975717815        5.2631952096        4.2419016176
 C        -5.0806787056        2.9824973125        4.6178913241
 C       -10.6857777529       -1.5001321696        4.2518183175
 C       -11.3182640844       -0.9526276988        1.8595311307
 C       -12.7188488803        6.0792932180        5.3693922645
 C       -15.1603071303        5.0606293451        4.9029587341
 C        -8.9377085578        8.6601273017        0.1326282103
 C       -10.7056854385        7.5414941331       -1.5005273135
 C       -10.9340896648        2.2382441436       -2.9745271682
 C        -8.6568482703        1.1454308493       -2.4738973160
 C        -5.3416291282        2.0384142229       -7.1175713426
 C        -6.4394127804        1.6977309360       -9.2952227134
 H        -5.8467658419       -1.0247082865       -6.5922099249
 H        -6.1953918967       -1.6075417353       -8.1847531562
 H        -7.2051804189       -1.8718147503       -6.8117272914
 H        -8.2883649562        4.5071449530       -6.2355110245
 H        -6.8703741570        3.8256648991       -5.9381154236
 H        -8.2605144948        1.7487367064       -5.1808486614
 H        -9.7140808133        2.4588068225       -5.3915117473
 H        -7.4697188044        3.6245568575       -0.9481647473
 H        -8.2825657990        3.6945294847        0.6615718025
 H        -8.4889875879        5.7262622601       -1.4985908284
 H        -7.5831700409        5.9208667104       -0.0890176053
 H       -12.7637396934        6.7651448364        0.2586944929
 H       -13.4150816797        8.3215111416        1.0254430140
 H       -12.4688129633        7.9127049361        3.0980826899
 H       -11.6931579781        6.3520033886        2.6809201574
 H       -14.1477325685        3.2529499411        2.4896001875
 H       -14.2777277937        2.4908805492        4.2205854983
 H       -12.0839952164        2.0288426180        2.0777293264
 H       -13.3555591855        1.1683147428        2.1114224948
 H        -8.6177079279       -0.2288579377        4.2860182424
 H        -9.0820575733        1.4141333838        4.7910340969
 H        -7.3792672818        1.2365497591        2.2928046376
 H        -6.5367055640        0.8959724780        3.7426794563
 H        -3.9403099775        5.3378367139        3.4284474303
 H        -3.8489737226        5.2654252981        1.5871536560
 H        -3.1562439569        3.9835100970        2.6346364749
 H        -5.4947592101        5.8162514904        4.3352580870
 H        -6.8005005664        5.2543290756        5.2942575793
 H        -7.1308964146        5.7276280845        3.5751521307
 H        -5.2052556402        2.9643463812        5.7168126201
 H        -3.9646786286        3.0962631056        4.4758927620
 H        -5.1986687601        2.0292900578        4.0736789620
 H       -11.3644573423       -2.3651871950        4.2160617271
 H       -10.6035011033       -1.2192188145        5.3136981370
 H        -9.8495569301       -1.9592604276        4.0147927637
 H       -10.4517516420       -1.1838460424        1.2436051491
 H       -11.8397749386       -0.2561042938        1.1912346069
 H       -11.9829998740       -1.8090746958        1.7996381547
 H       -12.8564260125        7.1706376898        5.5997995643
 H       -11.7547645280        5.8534690875        4.8830069157
 H       -12.6688314433        5.4744849718        6.2545427854
 H       -15.1227195846        4.1557639745        5.4516493840
 H       -15.8844711080        4.9112592054        4.1674689766
 H       -15.6024964746        5.8418930894        5.4502777543
 H        -9.1930204683        9.7044065229       -0.0552223890
 H        -8.2562866014        8.3717932267       -0.7203107177
 H        -8.5609504567        8.6792315514        1.0919675654
 H       -11.7602956310        7.6834476048       -1.5586538834
 H       -10.5343560814        6.6210274214       -1.8707911116
 H       -10.2068510366        8.2133001488       -2.2340272556
 H       -11.5635940534        2.1678814945       -2.1895884984
 H       -10.9971680844        1.3739506354       -3.5715648094
 H       -11.3740044866        3.1009151528       -3.5588959957
 H        -8.8206764552        0.4163735493       -1.6261441259
 H        -7.6101366562        1.4295910973       -2.3230786420
 H        -8.8176837474        0.4368821224       -3.3593271738
 H        -5.0062780398        3.0697735752       -7.3011408454
 H        -4.5926679708        1.3311343242       -7.4470405737
 H        -5.4461287070        1.9462672481       -6.0250522419
 H        -7.2231918708        1.1690644322       -9.8544958738
 H        -5.4691612661        1.2675151478       -9.5795440666
 H        -6.4270392917        2.6799420234       -9.5935890476
 Na      -10.3106180158        3.4472224007        1.7565075530
