117

 C        -6.6573335032       -1.3913951906       -7.3713308565
 C        -7.4060208669       -0.0045780022       -6.9996016624
 O        -8.3948496441       -0.0513611025       -6.3515781643
 C        -6.8625974514        1.3674047049       -7.5421896111
 C        -7.8184724607        2.5779133835       -7.3722161266
 O        -8.5513654149        2.8902868885       -8.3222432633
 C        -7.9024897085        3.2944430367       -6.0620797157
 C        -9.1694707263        2.9153912080       -5.2470093988
 C        -8.9992549868        3.3858535091       -3.8811551855
 O        -8.3781058293        4.3797814273       -3.5425309844
 C        -9.5355925706        2.3742031388       -2.7631594999
 C        -9.6194125314        3.0322903377       -1.1502820842
 O       -10.4269433179        2.5300293988       -0.3666614201
 C        -8.4484641539        3.8829957383       -0.6117541384
 C        -8.6809136812        5.3886719114       -0.6394291978
 C        -9.8834954315        6.0742594911        0.1646257633
 O       -10.4553626365        5.4406255215        1.0764016175
 C       -10.3294981684        7.5154554272       -0.1508776952
 C       -11.2141972658        8.2299352331        0.8399152994
 O       -11.0582772576        9.3988028249        1.0569279002
 C       -12.4916031115        7.4745531865        1.3541105909
 C       -12.7520814598        7.4352967493        2.8577820327
 C       -13.9157683286        6.5900538096        3.2217295342
 O       -14.9121369752        6.6884338565        2.6082140834
 C       -13.8709323903        5.5472499124        4.3153393659
 C       -13.0212610581        4.4490950895        3.7008620742
 O       -11.8949676071        4.6789399036        3.4197666445
 C       -13.7534312434        3.1174078702        3.3394720057
 C       -12.8569029367        2.0466580560        2.5950618752
 C       -12.2765105452        1.1195967662        3.5918675564
 O       -12.9742816740        0.9709730407        4.6302446555
 C       -11.0460787975        0.0201633616        3.5522459586
 C        -9.6144940957        0.7400177064        3.2553961694
 O        -9.4047211944        1.1913001663        2.1643264031
 C        -8.3901167300        0.9104471087        4.3960584172
 C        -7.0760988079        1.4981336847        3.8162417640
 C        -7.1599750702        2.9484657843        3.5400361864
 O        -8.1428048114        3.6464688122        3.2643134087
 C        -5.7615493619        3.8564760474        3.4435438997
 C        -5.2095104463        3.4073699117        2.0655536999
 O        -6.0672394308        3.2281912757        1.1953100486
 C        -3.6870419481        3.1601648416        1.8618809447
 C        -6.0935418266        5.3588258946        3.3253027391
 C        -4.7202226504        3.5449891859        4.6660227875
 C       -10.9591174376       -0.7702319355        4.7561151576
 C       -11.4952895817       -0.7892029100        2.3594685018
 C       -13.1911798785        6.0704394483        5.6032087091
 C       -15.2901407893        5.1411277680        4.7367208936
 C        -8.9540826098        8.3038383185       -0.1848432374
 C       -11.0385870863        7.7359580782       -1.6320827448
 C       -10.9410146205        1.7921630737       -3.1209325840
 C        -8.4162218924        1.2379644531       -2.5515666962
 C        -5.4963928500        1.5275911456       -6.4761154513
 C        -6.4121158147        1.2380316770       -9.0834163720
 H        -5.7394344603       -1.3122453503       -7.8482504309
 H        -7.3010945230       -2.1534368372       -7.8878050657
 H        -6.4306947600       -1.7704244184       -6.3638895308
 H        -7.8872441205        4.3880742282       -6.1902687982
 H        -7.1391384860        3.2729880839       -5.3208708705
 H        -9.3167403687        1.8119600785       -5.2317729296
 H       -10.0486081956        3.2706604012       -5.7944221893
 H        -7.5928354728        3.7722512605       -1.3143069159
 H        -8.1793386650        3.3603397778        0.3575929853
 H        -8.7075477399        5.7418926511       -1.5995684155
 H        -7.7116271999        5.8674906625       -0.3167470372
 H       -12.6163472155        6.3927971737        0.9544062657
 H       -13.2836214187        8.0709117014        0.8853444299
 H       -13.0669544750        8.4125820248        3.3062600436
 H       -11.8395773007        7.2118374593        3.5137738243
 H       -14.6305044496        3.4333775450        2.7918588739
 H       -13.8921857211        2.6442039227        4.3232544110
 H       -12.1087251629        2.2874992568        1.9001739530
 H       -13.4339152983        1.5580832699        1.8802862276
 H        -8.3264921964       -0.0752011297        4.8871010959
 H        -8.9059399813        1.6134249559        5.0736466525
 H        -6.7733923377        1.0519730780        2.8663058246
 H        -6.3228383167        1.2851047712        4.5412279237
 H        -3.1158599475        3.8486383288        2.4819034813
 H        -3.4065630302        3.5027595189        0.7933256738
 H        -3.3954006840        2.1279888051        1.9596590269
 H        -5.3129858444        5.9619449157        3.6201822961
 H        -6.8596407477        5.5418803766        4.0914763397
 H        -6.5002223703        5.5999511728        2.3649161572
 H        -4.9118634346        2.5133689455        5.0848700902
 H        -4.8143003589        4.2039918583        5.5567250539
 H        -3.7534405457        3.8393192340        4.2458023098
 H       -11.8551076884       -1.3934843001        4.9809356513
 H       -10.6009816050       -0.1813912263        5.5781190036
 H       -10.2361161488       -1.5751452462        4.6983318830
 H       -11.1265364954       -1.7772309788        2.3593219567
 H       -11.1331707049       -0.4377594154        1.3851081342
 H       -12.5604051292       -0.9101495314        2.1823737272
 H       -12.1777000200        6.3202912635        5.3192726353
 H       -13.2599503688        5.4397755534        6.4836812624
 H       -13.6954221737        7.0156252560        5.8047159681
 H       -15.3913018759        4.5254889292        5.6565310554
 H       -15.9007972910        4.7433430238        3.9705369676
 H       -15.8060880161        6.0228299239        5.0617783201
 H        -9.1602838033        9.3789276478       -0.4250379618
 H        -8.2242327954        7.9850198514       -0.9841328780
 H        -8.5258719489        8.1816215395        0.8260380346
 H       -10.6700756211        8.6228400379       -1.9850145950
 H       -12.0352720768        7.8530674199       -1.5071393063
 H       -11.0570516276        6.9255643226       -2.3244117390
 H       -11.0421950723        0.8001526673       -2.8474688325
 H       -11.1986046271        1.8920205476       -4.1811536554
 H       -11.7897608330        2.1180303290       -2.4549306372
 H        -8.7123995287        0.5074673565       -1.8071100325
 H        -7.5283894337        1.5532036733       -1.9541101975
 H        -7.9277093925        0.8362774047       -3.4694542211
 H        -5.0850232653        2.5314758433       -6.5637290951
 H        -4.7266528043        0.8964732811       -6.8349199125
 H        -5.7486911638        1.2586723219       -5.4598487162
 H        -7.1433825663        1.8031986232       -9.7477834158
 H        -6.2543421407        0.1945021785       -9.3283759251
 H        -5.4604766274        1.6488005956       -9.2301977610
 Na      -10.1670179324        3.4691637416        2.1517810476
