117

 C       -14.5951142713       -0.8248008073        4.7553994498
 C       -13.1900178824       -1.1512391231        4.1543870475
 O       -12.1669122035       -1.1067748019        4.8448531290
 C       -13.1495089408       -1.5836724238        2.6097790204
 C       -12.0001007029       -0.8931622648        1.8304604772
 O       -12.1805660119        0.1763467506        1.2795460253
 C       -10.5188477353       -1.4357140100        2.0544066300
 C        -9.4810960098       -0.9577997883        0.9963674194
 C        -8.1674700673       -1.5966415610        1.6084488789
 O        -8.2869424654       -2.7515644078        2.0848874124
 C        -6.9040308059       -0.8495824687        1.8118974747
 C        -7.1683379681        0.3493193327        2.8492363165
 O        -7.7287819373        0.0555230551        3.8482476551
 C        -6.7382008681        1.8963834237        2.5567362630
 C        -7.5402880408        2.8300184785        3.4673651091
 C        -8.4122457515        3.8843117089        2.7384858311
 O        -8.0115894169        4.3649212500        1.7616760471
 C        -9.9015116576        4.2212941743        3.1928395324
 C       -10.7588567648        4.1120030609        1.9029650866
 O       -11.1158385501        5.0893533382        1.1853806004
 C       -11.0780272568        2.7365409883        1.5201927483
 C       -11.4443307704        2.7182599704        0.0304785992
 C       -10.2876722808        2.7490934315       -0.9770510723
 O        -9.1243187037        2.6989175068       -0.5073819032
 C       -10.5158072559        2.9795002024       -2.4603227305
 C        -9.4303839829        3.9693613203       -3.0933800433
 O        -8.7594279986        4.7424948854       -2.4205369892
 C        -9.3717845014        3.9224557488       -4.6607198492
 C        -9.0330986159        5.3469343793       -5.1163957536
 C       -10.3532786921        6.2519547786       -4.9860657516
 O       -11.3253806745        5.7276831692       -4.4794660767
 C       -10.4558799298        7.7073481353       -5.4345040925
 C       -10.0676838826        8.5231316024       -4.1597255325
 O        -8.9025007373        8.7722239643       -3.8719358280
 C       -11.1325099882        8.7942712471       -3.1120824853
 C       -10.5792789558        9.4620784914       -1.8585818834
 C        -9.6646596249        8.5716998579       -0.9759065695
 O        -9.8717490853        7.3953562653       -0.9950502519
 C        -8.3247304678        9.1548015230       -0.2933368918
 C        -7.1763096212        8.0976646748       -0.7575330571
 O        -7.2379373318        6.9544302025       -0.3527383855
 C        -6.2831579070        8.5485801013       -1.8605830263
 C        -7.9738171779       10.6570282220       -0.6227690599
 C        -8.5331082400        8.9427311485        1.2899571460
 C        -9.3567282609        8.0977839406       -6.4524518670
 C       -11.8839474519        8.0181361862       -5.9101718915
 C       -10.4174536596        1.5781787716       -3.1595019181
 C       -11.9067804895        3.4489026914       -2.7214552367
 C       -10.3422630979        3.2640204071        4.2386115372
 C       -10.1747335078        5.7388505200        3.6785242746
 C        -5.7127625373       -1.6432148053        2.5262603384
 C        -6.3490936538       -0.6254100667        0.4084307737
 C       -13.0041151356       -3.1263722592        2.6461479465
 C       -14.4468953265       -1.1284515590        1.7513521123
 H       -15.4313426527       -1.4741389658        4.4627684651
 H       -15.0805983960        0.1014327262        4.2957643043
 H       -14.5990736353       -0.7093784354        5.9025842001
 H       -10.4958473837       -2.4357344307        2.2462241745
 H       -10.1171403242       -0.8606661253        2.9492862556
 H        -9.3959566472        0.1240127656        0.9401408458
 H        -9.5790378909       -1.3112907410       -0.0243042977
 H        -6.8148810723        2.0769283472        1.5031089332
 H        -5.6775564797        1.9806634564        2.7834401717
 H        -6.8743425358        3.3965719819        4.0181589372
 H        -8.1589881444        2.3321512490        4.1952071187
 H       -11.8239793445        2.3202645872        2.2205440818
 H       -10.1528502767        2.1648545269        1.7898660171
 H       -12.0964228301        3.5720847603       -0.1776785838
 H       -12.1433074203        1.8023804779       -0.1548989121
 H       -10.3055199127        3.4486387653       -4.9612258793
 H        -8.4217674668        3.3949977831       -4.9343346798
 H        -8.6321383169        5.2818509477       -6.1750964743
 H        -8.1006017819        5.6762672006       -4.5422624677
 H       -11.6529045511        7.8247352903       -2.7511506698
 H       -11.9190307457        9.4403476965       -3.5533368970
 H       -11.4749342511        9.7374227312       -1.2635592213
 H        -9.9768789988       10.3917755678       -2.0868677425
 H        -6.8121094195        8.7069398210       -2.7941899941
 H        -5.6397809563        7.7229358263       -1.9710875272
 H        -5.6903879936        9.4119221463       -1.6677715515
 H        -8.7744411177       11.3216040097       -0.3831441683
 H        -7.8645945579       10.6829699310       -1.6799987814
 H        -7.1366586231       11.0014096249        0.1024309941
 H        -9.1764371201        9.7149374221        1.7144908830
 H        -7.5805275399        8.9594451284        1.8111551896
 H        -9.0456597499        7.9504649282        1.4502829227
 H        -9.2673184868        7.4369474629       -7.2429731924
 H        -8.3671388064        8.1490638791       -5.9291727327
 H        -9.3754534869        9.0640646601       -6.8348144719
 H       -12.2175760250        7.1857347040       -6.4887613090
 H       -12.1097380483        8.9218323940       -6.3975976561
 H       -12.4739559451        8.0352172738       -4.9974639442
 H       -11.3249159983        1.0401820150       -2.8584016099
 H        -9.4827935858        1.0576645490       -2.7677328230
 H       -10.3210262182        1.7217427368       -4.2467813346
 H       -11.9600861237        4.5233487605       -2.6064297790
 H       -12.5570684062        2.9259102992       -2.0973099855
 H       -12.1952611673        3.1559961672       -3.7625929850
 H       -10.3429230065        2.2498730449        3.9024870260
 H       -11.3407303055        3.3946684224        4.7467880087
 H        -9.7126912096        3.1046363488        5.0848467578
 H        -9.7596067295        6.3967404444        2.9376373814
 H        -9.7578661994        5.9589157438        4.6654256934
 H       -11.2309394822        5.9323571413        3.8129810244
 H        -5.6381256717       -2.6425102039        2.1332274945
 H        -5.9078047707       -1.8253767248        3.5828230245
 H        -4.8088841137       -1.0736819091        2.4092909070
 H        -7.1871511921       -0.1975371169       -0.1382569282
 H        -6.0767376382       -1.5739966749       -0.0093176098
 H        -5.5256238065        0.0701469541        0.3735146942
 H       -11.9762617224       -3.4533615877        2.9041689555
 H       -13.0593535648       -3.4132294142        1.5891855437
 H       -13.6429659153       -3.6946925697        3.2254121911
 H       -14.3284266924       -0.0683888090        1.5389127826
 H       -15.2867387099       -1.3819959865        2.3323748084
 H       -14.3826296362       -1.6794660487        0.8224403627
 Na       -8.8908967177        5.3844633578       -0.0639467116
