117

 C        -6.8735203706       -1.5251034133       -7.2585791537
 C        -7.4384529076       -0.2287572784       -6.8256499308
 O        -8.3646538416       -0.1113605713       -5.9607690759
 C        -6.8049249619        1.1200393844       -7.4761204768
 C        -7.9361916932        2.4095181683       -7.3068137085
 O        -8.2168320264        3.0727602442       -8.2591902433
 C        -8.0743313663        3.1181088030       -5.9505885225
 C        -9.3618141351        2.9087988060       -5.1367202610
 C        -9.0390947051        3.3481741194       -3.6344980522
 O        -8.4395495599        4.3922142972       -3.4504013334
 C        -9.5005042529        2.3350029491       -2.5446651822
 C        -9.6160988601        3.0430965596       -1.0280315328
 O       -10.5619766386        2.8657250840       -0.2922177303
 C        -8.4516601921        3.9695340324       -0.5016152826
 C        -8.8171734226        5.4328228502       -0.8746405493
 C        -9.8479606714        6.0278880366       -0.0540663290
 O       -10.5061753223        5.3820850772        0.7194525071
 C       -10.3320264249        7.6054939959       -0.4063151448
 C       -11.2612937300        8.1447235867        0.7991367480
 O       -11.0742346792        9.2611328825        1.2174300081
 C       -12.5592076991        7.4811326008        1.2320295641
 C       -12.6801214858        7.6218199723        2.8161311388
 C       -13.9277305170        6.8328582999        3.2263728827
 O       -14.8971498865        6.9864367305        2.4632665432
 C       -13.8902887534        5.6840466184        4.3195683033
 C       -13.0399649696        4.5172006335        3.5470272532
 O       -11.8107570952        4.7363733053        3.4656072462
 C       -13.6174062109        3.2408183781        2.9263591394
 C       -12.7334609204        2.0201620075        2.6707227322
 C       -12.1986673284        1.2453468622        3.9369969856
 O       -12.7045070591        1.4923882400        4.9894281889
 C       -10.9966636979        0.2057977457        3.6891452658
 C        -9.6142712562        0.8204817595        3.2817760523
 O        -9.3749638374        1.1312011589        2.0953782061
 C        -8.7044222138        1.1066511052        4.4695410630
 C        -7.3548572210        1.5906407740        3.9680505755
 C        -7.1838824556        3.1644672613        3.5529509136
 O        -8.1525344931        3.8636189719        3.3155812069
 C        -5.6995464017        3.8054611365        3.2740802307
 C        -5.1717132760        2.9737244271        1.9217877799
 O        -5.9455532094        2.8167627098        0.9976934939
 C        -3.7275057116        2.4073556841        1.8846593243
 C        -5.8539211868        5.2836790892        2.8532090418
 C        -4.6869496030        3.6321553815        4.4796974069
 C       -11.0178072874       -0.5903539947        5.0071848143
 C       -11.1772832975       -0.8125821436        2.5529302298
 C       -13.1522781592        5.9624610016        5.6050282915
 C       -15.3124109086        5.2229260813        4.5055192082
 C        -9.0175466134        8.3717371858       -0.4098504921
 C       -11.1744613977        7.5921979211       -1.7208619268
 C       -10.8406635055        1.7419524367       -2.7298866869
 C        -8.2757531359        1.1800012522       -2.6998477104
 C        -5.6042202467        1.4351918518       -6.6040751678
 C        -6.2453737208        1.0220656237       -8.9870904038
 H        -6.0435027208       -1.3276499278       -7.9480877366
 H        -7.6361442596       -1.8396550708       -7.8894150116
 H        -6.6990181571       -2.2841065447       -6.5391342711
 H        -7.9334422746        4.1871927393       -6.1199910063
 H        -7.3236667809        2.8585695238       -5.0932833185
 H        -9.8031255516        1.9244820210       -5.2638775538
 H       -10.0233912841        3.5883211808       -5.6347238515
 H        -7.5029653581        3.6748326800       -1.0178418559
 H        -8.2530909883        3.7031713613        0.5198282021
 H        -9.4104143749        5.5097881592       -1.9038054672
 H        -7.9805922834        6.0690566036       -1.2457631345
 H       -12.4940229603        6.4999018264        0.8621290563
 H       -13.5527510556        7.8431150009        0.8634157960
 H       -12.7971696842        8.7135291550        2.9362533225
 H       -11.8823461687        7.3643890142        3.4607451622
 H       -13.8428114350        3.4619128624        1.8556848649
 H       -14.4135287648        3.1141783485        3.6774843088
 H       -12.1899899728        2.1601110213        1.7490597582
 H       -13.5712909128        1.3661357233        2.2649565908
 H        -8.5553093340        0.1458804314        4.9862886076
 H        -9.3160521677        1.7707208286        5.1225350108
 H        -7.0842986828        1.0297070776        3.0534820252
 H        -6.7683828962        1.2082357968        4.8526890022
 H        -2.8452617428        3.0665322032        1.9430483663
 H        -3.6739723215        1.8846484919        0.9662053784
 H        -3.6991271369        1.5977453427        2.6421969687
 H        -4.8136702885        5.7342917562        2.6253689428
 H        -6.2765363605        5.9064278296        3.6465152764
 H        -6.4742697607        5.3492522925        1.9250683153
 H        -4.1212552267        2.7017279571        4.5069265520
 H        -5.4433339267        3.5608170384        5.3423521969
 H        -4.1249076681        4.5638028190        4.6381864435
 H       -11.9410596927       -1.1684368654        5.1016807348
 H       -10.9454843390       -0.0006904819        5.9607276323
 H       -10.2508817076       -1.3033135442        5.0629503052
 H       -10.4048494067       -1.6245767689        2.6884793003
 H       -11.1119342293       -0.5497398214        1.5312819928
 H       -12.0939569394       -1.3851040780        2.5591060182
 H       -12.4644028884        5.1187939131        5.8592882520
 H       -13.9301546189        5.9515144285        6.3845238188
 H       -12.6647452975        6.9350117911        5.6544950346
 H       -15.4638053230        4.3225260189        5.0002294237
 H       -15.7177672374        5.1371699427        3.4873811323
 H       -15.8908701720        5.7996992821        5.2204875049
 H        -9.2546087669        9.3676989754       -0.1065805286
 H        -8.5309922127        8.4663768103       -1.3941216424
 H        -8.2858524837        7.8513592716        0.1983968378
 H       -10.5177023656        7.9374094912       -2.6115956670
 H       -12.1189950382        8.1898331991       -1.6984471450
 H       -11.7008106986        6.6182309764       -1.8753632383
 H       -11.0185404393        0.6846451396       -2.5581814091
 H       -11.4189555649        1.9740454236       -3.6117322599
 H       -11.4928811132        2.1999245249       -1.9639337918
 H        -8.3753143911        0.4035025939       -1.9283242981
 H        -7.2405113535        1.4496296666       -2.5460652872
 H        -8.2330958764        0.9028903254       -3.7551808038
 H        -5.1524016806        2.3935452350       -6.8423700495
 H        -4.8648343683        0.6779541353       -6.9338822363
 H        -5.8429361028        1.2174533251       -5.5657346897
 H        -6.9894328545        1.2732875378       -9.6503503460
 H        -5.8254592374        0.0255172640       -9.1775516169
 H        -5.4242543477        1.7350587254       -9.1632009146
 Na      -10.2836135133        3.4984390277        2.0652963240
