117

 C        -7.2555538973       -1.5023085903       -7.2214231149
 C        -7.4633075971       -0.0865197110       -6.5548338295
 O        -8.2552486985        0.0620117946       -5.6668489545
 C        -6.7016698923        1.0762047827       -7.3429869621
 C        -7.7170280951        2.3153693523       -7.1544816733
 O        -8.1384410640        2.8575201956       -8.1651292632
 C        -7.9020254257        2.9323137501       -5.7503629299
 C        -9.2583012281        2.6918938849       -5.1291721786
 C        -9.2232634205        3.1867926238       -3.7675776873
 O        -8.6716085061        4.2368210751       -3.4124099890
 C        -9.5774643748        2.3499360525       -2.4964329542
 C        -9.5984424157        3.2456071777       -1.1588332628
 O       -10.2653641472        2.8727667829       -0.1874335313
 C        -8.4118374427        4.1382259510       -0.8104372130
 C        -8.7809162821        5.5757482740       -0.9071647156
 C        -9.9666868594        6.1488755006       -0.1537083795
 O       -10.4892575709        5.4583285837        0.7303347552
 C       -10.3281557391        7.6129785645       -0.5731768563
 C       -11.1334862778        8.2836013274        0.7688307852
 O       -10.7025259541        9.2065509104        1.4283594494
 C       -12.5542815362        7.5751836856        1.1334340613
 C       -12.7231627632        7.4373422524        2.6346386583
 C       -14.0172137517        6.7718865415        3.0383476465
 O       -15.0986063865        7.2229330970        2.7744912944
 C       -13.8577162827        5.4793536920        4.0417904197
 C       -12.9441071296        4.4543785203        3.4199617604
 O       -11.7455894318        4.4116232740        3.4082965671
 C       -13.5857688179        3.2810827194        2.6631697242
 C       -12.8113811734        1.8282213765        2.6447603539
 C       -12.1193600987        1.4636554560        4.0215840935
 O       -12.1881856873        2.1452475974        5.0205283223
 C       -11.0277579048        0.2849140478        3.8841924645
 C        -9.7436806317        1.1531313348        3.5261794179
 O        -9.6108553186        1.4570139141        2.3866172985
 C        -8.7855088755        1.6504026404        4.6898172384
 C        -7.3741547316        1.8330347282        4.0414903125
 C        -7.2644705937        3.1874784831        3.3667437643
 O        -8.1457427712        3.9983971334        3.2542668611
 C        -5.7184815103        3.5487214552        3.0019661591
 C        -5.2349376174        2.5426807842        1.8294757641
 O        -5.8464134222        2.4413634025        0.8077083421
 C        -3.9538307613        1.7634006113        2.0511517254
 C        -5.7171082978        4.9897989777        2.3180292601
 C        -5.0223263914        3.5761573048        4.3703425251
 C       -10.7751780995       -0.4394004220        5.2338397462
 C       -11.5635796568       -0.7004434167        2.7977325887
 C       -13.1294280908        6.1597464776        5.3317388185
 C       -15.2501073508        4.9892454302        4.3328706813
 C        -9.1521463552        8.6010207687       -0.8973358391
 C       -11.2209403179        7.4699956927       -1.7808335520
 C       -10.9543595649        1.4994118512       -2.5141706394
 C        -8.4349799440        1.3453198093       -2.2608325898
 C        -5.4260215718        1.1948400230       -6.5554289768
 C        -6.5752727371        0.7926749796       -8.8637167975
 H        -6.1679980507       -1.7262211593       -7.2609470461
 H        -7.6344332566       -1.6408438974       -8.3016443978
 H        -7.8514037742       -2.2138814029       -6.5832522533
 H        -7.8076965646        4.0433674215       -5.9302534866
 H        -7.3578375930        2.5970340645       -4.9284648879
 H        -9.6102153266        1.6370735982       -5.0842137082
 H        -9.9915851851        3.2262721356       -5.7991360874
 H        -7.5861650136        3.7694552612       -1.4607645791
 H        -7.9811116015        3.7961516454        0.2179980915
 H        -8.9691655704        5.8313578782       -1.9061699521
 H        -7.8796797980        6.2186987667       -0.7934643678
 H       -12.8295178689        6.6571624068        0.5275116829
 H       -13.2219359860        8.2923937798        0.6929906219
 H       -12.5917790412        8.3896137453        3.1081951488
 H       -11.9129307894        6.7822427687        3.0459812910
 H       -13.5766374482        3.5985925310        1.6601305298
 H       -14.5731254430        3.1975554684        3.1501381824
 H       -11.9939107951        1.7791083763        1.8439171439
 H       -13.5707486995        1.0984124971        2.2867768861
 H        -8.8190672628        1.0119359673        5.5970186549
 H        -9.2457692613        2.6018207223        4.8912996406
 H        -7.2688979328        1.1082205835        3.2201452559
 H        -6.6723455828        1.6167103502        4.8061979509
 H        -3.2537493845        2.4723426440        1.6483425512
 H        -3.7509336597        0.8418438227        1.4972963733
 H        -3.6974954242        1.7114377594        3.1170351887
 H        -4.8892755474        5.0813949647        1.6291626290
 H        -5.6218202815        5.7954278583        3.0632269766
 H        -6.6316949508        5.1269235747        1.7179181432
 H        -4.6709580730        2.4733353095        4.4607510909
 H        -5.6237295439        3.9492626601        5.2262502633
 H        -4.0413294774        4.0974566578        4.2276298362
 H       -11.6696333722       -0.9430249366        5.5811248089
 H       -10.5772324395        0.1758970480        6.0867658896
 H        -9.8337982465       -1.2122392325        5.1812040353
 H       -10.8999376929       -1.2439241630        2.2114475510
 H       -12.1622365521       -0.1486926230        2.0479639013
 H       -12.2783062948       -1.4695997024        3.0926766228
 H       -13.5532583521        5.7248440177        6.1895153680
 H       -13.3937062670        7.2072414685        5.4035587837
 H       -12.0316731882        6.0704820958        5.3057181617
 H       -15.2449060027        4.1859057159        5.1694510194
 H       -15.8178442377        4.5363822522        3.5104063972
 H       -15.7883780076        5.6859700831        4.9618801634
 H        -9.7147047787        9.5223155126       -1.0447323651
 H        -8.6414981756        8.4090579637       -1.8133156182
 H        -8.2968781174        8.5929740791       -0.1915085452
 H       -10.7809776203        6.8013347736       -2.4778368895
 H       -11.1892645422        8.4825401911       -2.2802372089
 H       -12.2649954696        7.3393995182       -1.6396307187
 H       -10.7442937968        0.4466320899       -2.0833739555
 H       -11.3953513079        1.2132896833       -3.4980705788
 H       -11.8421114718        1.9073600340       -2.0748628462
 H        -8.4131614031        1.0446270595       -1.2326851915
 H        -7.4383354850        1.7425156807       -2.5463013352
 H        -8.4117304665        0.5723395683       -2.9564367633
 H        -4.8199498746        2.0516012597       -6.9430433718
 H        -4.8430356174        0.2638577970       -6.5929582629
 H        -5.8124368721        1.3382649462       -5.5186848160
 H        -7.3346135625        0.0240930701       -9.2457935599
 H        -5.5696487216        0.4529589873       -9.0599095046
 H        -6.7331752350        1.7671148633       -9.4014168827
 Na      -10.0160228668        3.6491602103        1.9610447611
