117

 C        -8.2505511186       -1.6977681400       -6.7930043617
 C        -7.3630544940       -0.6924082529       -6.2272890803
 O        -7.0835095964       -0.7033524153       -4.9733270423
 C        -6.7758961018        0.6189566403       -7.0918300182
 C        -7.5891031093        1.8996405714       -6.8601993044
 O        -8.2774532327        2.4712617417       -7.6939990521
 C        -7.4712914465        2.5336032119       -5.5026432920
 C        -8.9899508687        2.7438912616       -5.1162911300
 C        -9.4784007705        3.3485619564       -3.6720032066
 O       -10.0456257326        4.3821718684       -3.6127434413
 C        -9.4731197925        2.5000866424       -2.3726121682
 C        -9.5720587840        3.4115508289       -1.0705671023
 O       -10.4379002634        3.2982710257       -0.2148262594
 C        -8.4618030656        4.4470486791       -0.8897043977
 C        -8.7579776309        5.8667737904       -1.2262609546
 C        -9.7782948354        6.5163964805       -0.2595228412
 O       -10.0199759130        6.0279797674        0.8071783018
 C       -10.6165197678        7.8698702395       -0.8339851916
 C       -11.1037398526        8.4923967918        0.5065392740
 O       -10.2828494514        8.8123525097        1.3402811929
 C       -12.4872000781        8.3430779744        1.1330438791
 C       -12.3188896882        7.2359873738        2.2080656458
 C       -13.7203744108        6.7265694678        2.8412140419
 O       -14.7551591222        7.2093250239        2.5537118534
 C       -13.7369797995        5.5554821820        3.9237877598
 C       -13.1915626796        4.3005451912        3.1575071064
 O       -12.0056196644        4.4077281973        2.8499651354
 C       -13.8814658499        3.0405815823        2.6813431019
 C       -12.9324074564        1.9772199678        2.6292051686
 C       -12.3929216754        1.7326823040        4.0489458402
 O       -12.6948127057        2.5123841995        4.9535181658
 C       -11.2123707948        0.7570787919        4.4257974019
 C        -9.8163914198        1.5024195447        3.7806123130
 O        -9.5075914345        1.4434502561        2.6066108884
 C        -8.9136088348        2.2666855283        4.7244330882
 C        -7.3411105962        2.3219204453        4.1664309130
 C        -6.9379967070        3.3192108021        3.0290980983
 O        -7.7810610274        4.1522037684        2.6360267336
 C        -5.5239135502        3.2523370817        2.4864257914
 C        -5.3911245172        1.8246990572        1.8764098599
 O        -6.0836507992        1.6101495477        0.8656099161
 C        -4.6758789558        0.7272333081        2.7719421195
 C        -5.1102573715        4.2346325068        1.3397722239
 C        -4.4019966022        3.5365883649        3.6409482828
 C       -10.8736708500        0.5951750416        5.9292364770
 C       -11.3741273937       -0.6270299717        3.8704888089
 C       -12.9110401387        5.9574742128        5.1131025505
 C       -15.2576442122        5.4098285767        4.3917931984
 C        -9.5893029923        8.8360482785       -1.5148923485
 C       -11.6224647137        7.1927961286       -1.8751743995
 C       -10.7384893940        1.6865118431       -2.2835189922
 C        -8.2912214432        1.5570872030       -2.0859989452
 C        -5.1111915725        0.8151167897       -6.8009581193
 C        -6.9670072217        0.4249860723       -8.6484180351
 H        -7.6755660176       -2.4030116220       -7.5117302898
 H        -9.1170641696       -1.1725274164       -7.2725162465
 H        -8.6769998155       -2.3603191565       -5.9538307238
 H        -7.0936854720        3.5000281815       -5.5613959784
 H        -7.0917491104        1.6811545381       -4.8953391213
 H        -9.5824753745        1.8145469486       -5.2772686029
 H        -9.2462683417        3.5478018986       -5.8557531643
 H        -7.4563842580        3.9513625194       -1.0450660952
 H        -8.5158931079        4.4526451480        0.1999736582
 H        -8.8027213262        6.0936471802       -2.3232410848
 H        -7.7882759267        6.2880052668       -1.1171493868
 H       -13.2207020421        8.2631755075        0.3631935506
 H       -12.9376620299        9.1689508622        1.7094877730
 H       -11.7152255748        7.7680996182        3.0417375406
 H       -11.6617952754        6.3971149710        1.9847749619
 H       -14.2957963996        3.2472255520        1.6478876097
 H       -14.7966350563        2.9036083864        3.3041569298
 H       -12.2057057052        2.1311860034        1.8724265068
 H       -13.3268080518        1.0084042320        2.3028177039
 H        -8.8812713441        1.7888027927        5.7863901107
 H        -9.2159776923        3.2812824452        4.7880878488
 H        -7.1152510990        1.2879425866        4.0553596271
 H        -6.7971682081        2.7273765892        4.9921000367
 H        -3.7612805999        1.1270269503        3.2446891064
 H        -4.4803238067       -0.1344272795        2.1638910069
 H        -5.3297828468        0.3763272340        3.5807776963
 H        -4.1055355559        4.7332352301        1.4742573309
 H        -5.8978713479        4.9609557469        1.3002612559
 H        -5.1316179338        3.8456602680        0.3097398771
 H        -4.0503494394        2.7388470214        4.2392728839
 H        -4.7975418204        4.5345279562        3.9880423106
 H        -3.4688455568        3.7682429901        3.0433225346
 H       -11.7905363026        0.2783100423        6.5321187881
 H       -10.5920979963        1.5831589488        6.4758781087
 H       -10.0986474360       -0.0316091379        6.0325053733
 H       -11.6917665017       -1.3104512068        4.7020511480
 H       -10.4378651887       -1.1008193021        3.6228783021
 H       -12.0951412382       -0.8787133248        3.1012784155
 H       -12.1886978403        6.7742041178        4.9825458242
 H       -12.2651910576        5.1922526715        5.5188493574
 H       -13.6593952830        6.2236932761        5.8491839365
 H       -15.2301573279        4.4478780758        4.8601350178
 H       -16.1342721527        5.2657953345        3.6863202534
 H       -15.7411718431        6.2185471389        4.9971117987
 H       -10.1669102941        9.7211893155       -1.8303949604
 H        -9.0603885664        8.3635408364       -2.3448576948
 H        -8.8314510729        9.2780179194       -0.8164577889
 H       -11.2337799465        6.3574323649       -2.4161858818
 H       -11.9818673983        7.8510072977       -2.5221445707
 H       -12.4325207835        6.6928285279       -1.3102820102
 H       -11.2631330717        1.8834120166       -1.4084608853
 H       -10.6630067546        0.5792242006       -2.2204228903
 H       -11.4402582744        1.8051051310       -3.2066478244
 H        -8.5541695052        0.8614558943       -1.3340289079
 H        -7.4255799117        2.1317254440       -1.8960967407
 H        -8.0846976468        0.7970029283       -2.8854805119
 H        -4.9054592286        1.7925490309       -7.2489553830
 H        -4.6958474728       -0.0613747873       -7.3164188257
 H        -4.7630367113        0.8676207375       -5.7511732715
 H        -7.9634690837        0.4413185405       -8.9949179272
 H        -6.6795676660       -0.6402818751       -8.9161943341
 H        -6.2011514590        1.1031774826       -9.0798642955
 Na       -9.9899924476        3.8227557468        1.8220484719
