117

 C        -8.4761968113       -1.6545595710       -6.6678610125
 C        -7.2575384603       -0.7336937354       -6.1302127299
 O        -6.8372803831       -0.8876969994       -5.0027514873
 C        -6.6362635551        0.4585637158       -7.1514295321
 C        -7.5281337550        1.8076116515       -6.8092841402
 O        -8.2552213766        2.3379124315       -7.6170136193
 C        -7.5424158318        2.5854073623       -5.2536237456
 C        -9.0335851877        2.9276539487       -5.0901173324
 C        -9.5809411118        3.3566494241       -3.7293872281
 O       -10.1673335823        4.4228730963       -3.8019906450
 C        -9.5884533110        2.4655244474       -2.3481204547
 C        -9.6368384038        3.5497994176       -1.1608315541
 O       -10.4442231730        3.3635649781       -0.3197151692
 C        -8.2954091409        4.5221866196       -0.9180226727
 C        -8.6861391721        6.0157922965       -1.3344231313
 C        -9.6749237661        6.5577117110       -0.4310958637
 O        -9.9266649136        6.0915971105        0.6810362617
 C       -10.5385658497        7.8050252279       -0.7945490020
 C       -10.9618417620        8.4444068074        0.5699191916
 O       -10.2139217078        9.1151065279        1.2238649185
 C       -12.5138895130        8.2928133256        1.1504421349
 C       -12.4178948664        7.2744517415        2.2768480477
 C       -13.7258704373        6.7332262848        2.7601403709
 O       -14.7340595363        7.3187860317        2.3970978770
 C       -13.7340734587        5.5172927158        3.8334240850
 C       -13.2114664159        4.2717502825        3.1328249117
 O       -11.9855206650        4.2916312192        2.8950024852
 C       -14.0644262003        3.0731730238        2.7283071640
 C       -12.9785771695        1.8949262137        2.6951799954
 C       -12.3567673267        1.9304769796        4.2083462045
 O       -12.9614973404        2.5119596181        5.0759146452
 C       -10.9697343150        1.0239377154        4.5004073879
 C        -9.7325336699        1.5737353585        3.7968721066
 O        -9.5736486884        1.4242939957        2.5610421621
 C        -8.7736891922        2.3963239608        4.6791039866
 C        -7.3052104425        2.4771417102        4.1598479081
 C        -6.9635734842        3.4229136513        3.0012888639
 O        -7.7469261769        4.1132967701        2.4043727088
 C        -5.4600547779        3.1983175073        2.4516036359
 C        -5.5214535651        1.6778407490        1.9737544747
 O        -5.9922376801        1.3483087894        0.8951758162
 C        -4.8401638749        0.5469116195        2.7714703422
 C        -5.2099021773        4.0066796386        1.1825577190
 C        -4.4496716338        3.3978646701        3.6684642646
 C       -10.8701543644        0.9649616974        6.0602969088
 C       -11.2097999331       -0.4164789686        3.9604603000
 C       -12.8425274499        5.9966107265        4.9636034407
 C       -15.2416179630        5.4193544904        4.3017240476
 C        -9.5946435274        8.6493658371       -1.5704906372
 C       -11.8087332003        7.2077745203       -1.5036393654
 C       -10.8342639684        1.4127617309       -2.2492812970
 C        -8.2704194148        1.7614965913       -1.9509122519
 C        -5.2269930170        0.6806921569       -6.8537068367
 C        -6.9296990016        0.1746680689       -8.6062962855
 H        -8.2975556404       -1.9260383172       -7.6561820449
 H        -9.4668927387       -1.0948417620       -6.5642385525
 H        -8.5588622735       -2.6189790531       -6.0979398744
 H        -7.0766104790        3.5641307501       -5.3023875438
 H        -7.2915297649        1.8034514856       -4.4860806767
 H        -9.6361891346        2.0450830445       -5.4005683363
 H        -9.1725260609        3.7678528709       -5.7444924580
 H        -7.5981507469        4.0698514611       -1.6018953316
 H        -7.9026516656        4.2832533259        0.0076268162
 H        -8.8806394862        5.9276317324       -2.4484986521
 H        -7.7820545500        6.5880303437       -1.4872808098
 H       -13.0730617775        7.8710754812        0.3188913290
 H       -13.1908525683        9.1265038244        1.4152303568
 H       -11.9146599056        7.7672917206        3.2101471935
 H       -11.6233056374        6.4801929884        2.0196558477
 H       -14.4322577974        3.1847976905        1.5918800134
 H       -14.9049500937        3.1102362489        3.3314937054
 H       -12.2742978480        2.1881408671        1.9620973755
 H       -13.1756146934        0.9313076941        2.4772403544
 H        -8.7426480316        1.9621777983        5.6668470752
 H        -9.1434452354        3.4738065703        4.7966769469
 H        -7.1549917592        1.4527662266        3.9334215868
 H        -6.7197622110        2.6853157693        5.0539536688
 H        -3.8736760633        0.9053987677        3.2076012706
 H        -4.7654265493       -0.3884479342        2.0818103163
 H        -5.4346303808        0.2184761205        3.5864449396
 H        -4.2272908757        4.3124867635        1.1071656030
 H        -5.8904797558        4.8657854415        1.1343195909
 H        -5.4812341975        3.4884288185        0.2722625636
 H        -4.7036317534        2.5387840369        4.2886008230
 H        -4.6635921062        4.4273749257        4.0512932157
 H        -3.3785578058        3.2013685003        3.4385079581
 H       -11.7902891145        0.4806410830        6.3305487897
 H       -10.8507567845        1.8896679754        6.5184928825
 H        -9.9958221126        0.3722649546        6.4609500160
 H       -11.9989400295       -0.9584316690        4.5584139794
 H       -10.3623001448       -1.0758005198        4.1290559428
 H       -11.5730145003       -0.5139854458        2.9602249164
 H       -11.7834157730        6.1802092810        4.6682012383
 H       -12.6913378294        5.2527657092        5.6999966673
 H       -13.2862847702        6.8683128636        5.3878760377
 H       -15.3928328929        4.6077096112        5.0168331889
 H       -15.9749887337        5.2522131826        3.5673883214
 H       -15.5973267289        6.3545424294        4.6416023087
 H       -10.1906229476        9.3762586479       -2.1517075979
 H        -9.0843628595        7.9592603424       -2.3519908619
 H        -8.9408173085        9.2720391297       -1.0182801870
 H       -11.6687618295        6.8256517346       -2.4333659771
 H       -12.4652155123        8.0434374252       -1.6553079232
 H       -12.2363574848        6.4463618845       -0.8947223190
 H       -11.4645034227        1.4521433981       -1.4024819314
 H       -10.4465187400        0.4418752371       -2.2664223832
 H       -11.4850195488        1.4058452999       -3.1392431528
 H        -8.0972953642        1.4974944304       -0.9079269203
 H        -7.5897131277        2.4929235882       -2.3248667871
 H        -8.1438610309        0.7191336331       -2.3730012444
 H        -4.9512357180        1.6288212624       -7.2866409971
 H        -4.6944725636       -0.2073691770       -7.2152934365
 H        -5.0667855857        0.8095969023       -5.7922720105
 H        -7.9817671240       -0.2002950963       -8.6309715214
 H        -6.4197661605       -0.7183471642       -9.0390459843
 H        -6.7218674751        1.0238931911       -9.1499270599
 Na       -9.9121043392        3.8089490412        1.9227028269
