117

 C        -8.6609796068       -1.4345963466       -6.1292516765
 C        -7.2275782921       -0.8705964510       -6.0537737745
 O        -6.4568270015       -1.1997417763       -5.0877251180
 C        -6.7247491620        0.2603907867       -6.9994333756
 C        -7.6652229967        1.6293181800       -6.7597103546
 O        -8.2457582366        2.2855482587       -7.6298096929
 C        -7.8375671839        1.9357514509       -5.2605010591
 C        -9.1532005812        2.7311845399       -5.0223854736
 C        -9.5339314987        3.3802520419       -3.6620185315
 O       -10.3097971942        4.3175214723       -3.6282771541
 C        -9.4274277333        2.4691015282       -2.4017843753
 C        -9.5557312947        3.5147769778       -1.2214235161
 O       -10.4978117230        3.5297917786       -0.4106663507
 C        -8.2765750801        4.5394468367       -1.2439412678
 C        -8.8646462230        5.9784756625       -1.4026825181
 C        -9.7083642289        6.5235872743       -0.3353442566
 O        -9.7375590173        6.0052971652        0.7605913780
 C       -10.5606212928        7.7490739035       -0.7612367879
 C       -10.9132047477        8.6658616204        0.6480671006
 O       -10.1337927853        9.5825689158        0.8550131070
 C       -12.2945724850        8.4150148283        1.2490243602
 C       -12.3359843103        7.4069729414        2.4141781355
 C       -13.7210398620        6.8444217671        2.6734660494
 O       -14.6877533329        7.2867521532        2.1619150639
 C       -13.8154920830        5.5738772090        3.6396855905
 C       -13.0630347120        4.3296940845        3.0346940134
 O       -11.8632515858        4.4426849808        2.9373121101
 C       -13.9630761404        3.0480600664        2.7169803331
 C       -13.1916086526        1.8606778957        2.9930839734
 C       -12.5146468926        1.8983248342        4.3843252050
 O       -13.0537525738        2.4574583050        5.3064135426
 C       -10.9703667091        1.2568182940        4.6589365430
 C        -9.8789930788        2.0018281449        3.9315898438
 O        -9.6418234729        1.8120202874        2.7623850026
 C        -8.9565434896        2.9691397924        4.6672862536
 C        -7.4242442584        2.6806732080        4.1768757796
 C        -6.9220377008        3.1469921315        2.8057892464
 O        -7.5869555974        3.9626132283        2.1777985733
 C        -5.4176660741        2.7909567519        2.3362587171
 C        -5.4873013295        1.3098767091        1.8763004411
 O        -6.0126708731        0.9517348288        0.8181079135
 C        -4.9225176712        0.2719226319        2.8593499283
 C        -5.1193906642        3.7578195224        1.1404902856
 C        -4.4071317709        3.2272927484        3.4235886290
 C       -10.8170654239        1.4118367477        6.2517245334
 C       -11.0979445396       -0.2240427093        4.2403623128
 C       -12.9333103110        5.9779708019        4.9671411325
 C       -15.2103259757        5.3290324080        4.1420261595
 C        -9.9881244791        8.7845224267       -1.7305327745
 C       -11.7789815950        7.1942989685       -1.5372717329
 C       -10.7618317263        1.5878179622       -2.4229509365
 C        -8.0381328025        1.7675073899       -2.3187524361
 C        -5.0942031031        0.5576271079       -6.6854436301
 C        -6.9319128668       -0.0874178167       -8.5406600859
 H        -9.1393773052       -1.1506354116       -7.0935528056
 H        -9.2403236874       -1.0003731450       -5.4001223418
 H        -8.6565110246       -2.4904336789       -6.1633910035
 H        -7.0182589096        2.6645105224       -5.1747264821
 H        -7.7736386424        0.9928033055       -4.7787574234
 H        -9.8956004421        1.9690369209       -5.1711234518
 H        -9.1237822581        3.5337781684       -5.7730759917
 H        -7.6011373598        4.2140632453       -2.0470518500
 H        -7.6767677085        4.4450376404       -0.3035249816
 H        -9.3339311348        5.9754523981       -2.3562067763
 H        -8.0117137321        6.6080377835       -1.7217928681
 H       -13.1009421846        8.3368738178        0.4858649694
 H       -12.4199406055        9.4329847492        1.6952470259
 H       -11.8879103603        7.7838854423        3.2758678813
 H       -11.6414719189        6.6402863456        2.2185961816
 H       -14.1515803895        2.9365937087        1.7178063265
 H       -15.0272802215        3.1173438891        3.2052952730
 H       -12.2287514922        1.7386607784        2.3928117086
 H       -13.8258240173        0.8852593385        2.7847424090
 H        -8.8835268785        3.0294059517        5.8308132110
 H        -9.1492500922        3.9803188446        4.3644460869
 H        -7.2396668618        1.6006892904        4.4512355482
 H        -6.8388532605        3.1773814394        4.9829516705
 H        -3.8619248508        0.3599230595        2.9622362777
 H        -5.2497404067       -0.6484648940        2.5228802524
 H        -5.3466922637        0.3382327331        3.9047826884
 H        -4.1585394288        3.3823567705        0.6543921731
 H        -4.9565842038        4.7994836122        1.2937260087
 H        -5.9056022871        3.7100106407        0.4049407630
 H        -4.5420790422        2.6994965379        4.3999940258
 H        -4.3734965045        4.3161856308        3.4120903625
 H        -3.5053594593        2.8445791949        2.9003000240
 H       -11.6244727455        0.8153806806        6.7838441433
 H       -10.8216740470        2.5777882443        6.3731179079
 H        -9.9061997532        1.0883098702        6.6215518794
 H       -12.0816735836       -0.4660545152        3.8802496092
 H       -10.8250889456       -0.9651471021        4.9951611924
 H       -10.5323435024       -0.3591264119        3.3050906129
 H       -12.2226943377        5.2474026620        5.2880468258
 H       -13.6014393230        5.9748285752        5.8474239923
 H       -12.3616551027        6.9243927830        4.8708716545
 H       -15.3285022642        4.6615251926        4.9565184302
 H       -15.9101092900        5.0521341924        3.3118275848
 H       -15.5966205482        6.3528518399        4.3538676937
 H       -10.6827972345        9.6032390226       -1.8796549676
 H        -9.8875126317        8.3816950281       -2.6856335104
 H        -9.1233352140        9.3600301957       -1.3178991341
 H       -11.3084761727        6.9433158513       -2.5816991741
 H       -12.4141455550        8.0198741836       -1.8714180189
 H       -12.4057054874        6.3068166352       -1.0744907152
 H       -11.2357200154        1.5078120798       -1.4372694712
 H       -10.5691682737        0.5438498674       -2.8304284292
 H       -11.6359174433        2.1057646358       -2.9437085368
 H        -7.7694070532        1.5784266091       -1.2601064224
 H        -7.2490814841        2.4015072675       -2.7353510882
 H        -8.1595333684        0.7624536205       -2.6984043482
 H        -4.7325238353        1.2989236079       -7.3898913868
 H        -4.5587797329       -0.3629982552       -6.7270852762
 H        -5.0100093588        1.0393471691       -5.7241872630
 H        -7.9062241199       -0.3643539821       -8.8851285318
 H        -6.2844346443       -0.8891497298       -8.8610867014
 H        -6.6339271127        0.8966320295       -9.0195915486
 Na       -9.9526458393        3.9516352691        1.9141804719
