117

 C        -8.6262320174       -1.3016255233       -5.8198058841
 C        -7.1774176203       -0.8926518371       -5.9652791172
 O        -6.4163195537       -1.4542552978       -5.1150602095
 C        -6.7491618572        0.3022272248       -7.0337007866
 C        -7.6604665305        1.4875962502       -6.7921981840
 O        -8.1685611083        2.1451317145       -7.6803526819
 C        -8.0840582643        1.7407699381       -5.2667147568
 C        -9.2943888546        2.6445478353       -5.1602423547
 C        -9.5921195819        3.2131725435       -3.7179861081
 O       -10.1126044114        4.2733255063       -3.7121554032
 C        -9.3847123920        2.3700297942       -2.3417606936
 C        -9.3888600607        3.4911524663       -1.2709371342
 O       -10.3411469392        3.4735275346       -0.5404145865
 C        -8.3348573919        4.6276877251       -1.2084714812
 C        -8.8655738366        5.9800644514       -1.5057191368
 C        -9.7195811208        6.6901835695       -0.3662772897
 O        -9.7959091907        6.2930163318        0.7736052876
 C       -10.6301033419        7.8518104542       -0.7913456871
 C       -11.0772122112        8.8376674782        0.5036005819
 O       -10.1657774778        9.5882766458        0.7261411109
 C       -12.3254532128        8.6953425323        1.3273187125
 C       -12.1613011976        7.5229539996        2.3869162580
 C       -13.5614467272        6.7813394871        2.6048629637
 O       -14.5922921586        7.1553980504        2.1054086124
 C       -13.8234801057        5.6154661552        3.7709127285
 C       -13.1095638595        4.4276527502        3.1097340968
 O       -11.9019500220        4.4217342804        2.8553870912
 C       -13.8034437487        3.1797133182        2.6864699551
 C       -13.0335180105        1.8917633571        3.0165189918
 C       -12.5011067458        1.9976951007        4.5585725606
 O       -13.1997745260        2.5292647000        5.3952268104
 C       -11.1017169006        1.3382124354        4.7952744066
 C        -9.9319198281        2.2621453854        3.9800348784
 O        -9.8517607725        1.9867239835        2.7895564437
 C        -9.0330348138        3.3280283610        4.6278428427
 C        -7.4573446568        2.7665122625        4.3166288225
 C        -6.8391925228        3.2587018917        2.8614013021
 O        -7.6189946175        3.7408538431        2.0435180191
 C        -5.4440155370        2.7269058423        2.2659618501
 C        -5.5517001431        1.1939740571        1.8541129698
 O        -5.9874425589        0.7939589761        0.7641321207
 C        -4.9193303532        0.2252346736        2.9132074882
 C        -5.0511478963        3.5101960242        0.9807821911
 C        -4.3095697996        2.9654421434        3.3634816764
 C       -10.7311444500        1.4005882316        6.3663140229
 C       -11.0074583838       -0.2314778973        4.4757446809
 C       -13.1070893531        5.9522891859        5.1224989499
 C       -15.2895894536        5.3832088145        4.0076378321
 C        -9.9087847568        8.7978764360       -1.6720688142
 C       -11.8562387917        7.0824102382       -1.4605974723
 C       -10.6578639041        1.6163827451       -2.4026990854
 C        -8.0586241666        1.6112642032       -2.2932963879
 C        -5.3523770369        0.5966850312       -6.6909641664
 C        -6.7998004766       -0.1149924255       -8.4768737136
 H        -9.3043458206       -0.8346993391       -6.4982572423
 H        -9.0654488200       -1.0944394356       -4.8057471573
 H        -8.5947085797       -2.3641547351       -6.1735689363
 H        -7.2637388926        2.0830124716       -4.7499021506
 H        -8.4741456201        0.7342632682       -4.9624639143
 H       -10.0762523619        1.9898502536       -5.5690312395
 H        -9.0720331474        3.5699478249       -5.7215812382
 H        -7.3231391330        4.2819257071       -1.7084866841
 H        -8.0639136363        4.7492862449       -0.1293889074
 H        -9.3474769911        5.9560924982       -2.5239265311
 H        -7.9758160376        6.4274295212       -1.8380336180
 H       -13.1785962342        8.3747344363        0.7600720038
 H       -12.4826240818        9.7422558988        1.7059365071
 H       -11.7918815033        7.7104310281        3.4060361529
 H       -11.3603911579        6.9578124757        2.0486465831
 H       -14.0422897590        3.2078536548        1.5353498589
 H       -14.7295948501        3.0086815438        3.1238129996
 H       -12.0825012112        1.4828621681        2.6009899073
 H       -13.7955931250        1.0799242698        2.9624072702
 H        -9.1005350411        3.5997106919        5.6457745657
 H        -9.0956812458        4.2515159286        4.0617599157
 H        -7.4500891748        1.6864566138        4.4455377750
 H        -6.9318579758        3.0593473154        5.2279501748
 H        -3.8483338522        0.1955158243        2.8016866257
 H        -5.3912662320       -0.7477909188        2.6897799190
 H        -5.1442629970        0.3882156060        3.9027412951
 H        -4.2480760635        2.9322182133        0.5086157981
 H        -4.5279936031        4.4901731700        1.1602381387
 H        -5.8501965277        3.7623602456        0.2126009977
 H        -4.4154666844        2.2888800209        4.1736948144
 H        -4.3363994807        4.0499527908        3.6825790241
 H        -3.3944274260        2.7969017383        2.7032942371
 H       -11.3941889598        0.7824654491        7.0533304587
 H       -10.5803522812        2.4520002377        6.5842432816
 H        -9.7382220394        0.9321088034        6.4806458742
 H       -11.9261298613       -0.6887607917        3.9831066322
 H       -10.7725024469       -0.7686600998        5.3753772093
 H       -10.2544215780       -0.4001819958        3.7293838280
 H       -12.5977195192        5.2191365500        5.8373205832
 H       -13.8765831339        6.3733573484        5.7497495634
 H       -12.3497369508        6.7015248839        4.8900111834
 H       -15.4525469299        4.4045123204        4.5514993601
 H       -15.7644525084        5.2526191478        2.9617888022
 H       -15.9089098018        6.2079613615        4.5113675628
 H       -10.3617158324        9.7445488079       -1.8442680824
 H        -9.9665007235        8.3291076919       -2.6759562045
 H        -8.9771569681        9.0716714976       -1.3022320551
 H       -11.4225075176        6.3015315193       -2.0946792811
 H       -12.4684551224        7.6415173779       -2.1743599534
 H       -12.4249243209        6.6073472493       -0.5933893683
 H       -10.9561582823        1.1210452108       -1.5107137844
 H       -10.6532616100        0.8419110073       -3.2448566008
 H       -11.5886621069        2.3424780272       -2.4363200910
 H        -7.9640301865        1.1880818193       -1.3130950939
 H        -7.2902080214        2.3092540061       -2.3462306723
 H        -8.0067326272        0.7502311632       -3.0225336543
 H        -4.8181129016        1.1863860309       -7.4378439398
 H        -4.9043864963       -0.4016593743       -6.5706144264
 H        -5.3692446122        1.1542525215       -5.7451237215
 H        -7.8832190347       -0.1230477702       -8.6655198009
 H        -6.4634640100       -1.1978106974       -8.6811116957
 H        -6.4033644009        0.6056213428       -9.1551344463
 Na       -9.9227737132        4.0545888141        1.7327926847
