117

 C        -8.7495706003       -1.3282856615       -5.7105476720
 C        -7.1652610914       -0.9990129373       -5.9122728862
 O        -6.2761292732       -1.4829785761       -5.3663414444
 C        -6.8083269098        0.0888780828       -6.8605302447
 C        -7.8331232109        1.2783153915       -6.7907836671
 O        -8.0413386277        2.0102086756       -7.6827660835
 C        -8.2953863646        1.6307180347       -5.3469305782
 C        -9.4097773710        2.6293116425       -5.3271054269
 C        -9.4957741392        3.2226084330       -3.9514072532
 O        -9.9578824095        4.3425243827       -3.7049535789
 C        -9.3448456397        2.4271859254       -2.5509034489
 C        -9.3614526393        3.5670046629       -1.3070137392
 O       -10.2348440758        3.4067166118       -0.4764611822
 C        -8.3612406709        4.6487725256       -1.0638235374
 C        -8.9414644167        6.0998690810       -1.4115688241
 C        -9.8458513678        6.7546408785       -0.3848755618
 O        -9.6975235756        6.4230288651        0.8266262998
 C       -10.7127833760        7.9120832547       -0.8855322333
 C       -11.0282161569        8.8258852663        0.3898841487
 O       -10.2830011889        9.6896883085        0.7479378722
 C       -12.3228078807        8.7022375422        1.3523880424
 C       -12.2409867051        7.5479231715        2.3668681058
 C       -13.5650154911        6.9505860908        2.7863156254
 O       -14.4393825555        7.0664011100        1.9027212361
 C       -13.7416457080        5.7056802193        3.7746870173
 C       -12.9993454591        4.4381335766        3.1425016029
 O       -11.7897096091        4.6045347934        2.8610850176
 C       -13.8332481454        3.1260115617        2.6750315712
 C       -12.9077000894        1.8728181159        3.1335480462
 C       -12.4098011545        2.0147827570        4.6693841224
 O       -13.1668484637        2.5383727411        5.4232777414
 C       -10.9415499319        1.5377441945        4.9924041227
 C       -10.0058686627        2.2914568483        4.0787991587
 O       -10.2183908669        2.0983037083        2.8531957061
 C        -8.9267670022        3.3446666401        4.4214871379
 C        -7.4523400851        2.9729216817        4.1854301111
 C        -6.9989631240        3.1072877965        2.8164892426
 O        -7.6445168088        3.6322606491        1.9371456846
 C        -5.4487240106        2.6369866006        2.3045361426
 C        -5.5681393033        1.0531264509        1.9625929044
 O        -5.9557130932        0.8209778466        0.8856225016
 C        -5.0093280355        0.0205966986        2.8793905099
 C        -5.1325788482        3.2643953283        0.9563581856
 C        -4.2693650841        2.7587554468        3.3242813693
 C       -10.6852409419        1.5376334482        6.5512626248
 C       -10.9130461714        0.0714469656        4.5696333325
 C       -13.2390972319        5.9690414740        5.2302469081
 C       -15.2748803926        5.4860429330        3.8129544420
 C        -9.8451399191        8.8222472599       -1.9337756638
 C       -12.0687537648        7.1250555151       -1.3144487465
 C       -10.5612388530        1.4779536564       -2.2897721961
 C        -8.1147663249        1.3887146448       -2.1564614506
 C        -5.2865965993        0.7140767152       -6.5508341978
 C        -6.8009024659       -0.3679208489       -8.4129997816
 H        -9.4676640044       -0.5315681226       -5.9597810671
 H        -8.9755388201       -1.4397645902       -4.5872642957
 H        -9.0395068428       -2.1594284682       -6.3943815429
 H        -7.3603519507        2.0461511231       -4.8925346157
 H        -8.5407545627        0.7130323821       -4.7866588763
 H       -10.2982915932        2.0206167656       -5.6197942875
 H        -9.1150318923        3.4306727875       -6.0018477063
 H        -7.5512999823        4.2791155499       -1.7285368029
 H        -7.9463552470        4.6341424715       -0.0341923440
 H        -9.3594709572        5.9727297729       -2.4451177990
 H        -8.0312462054        6.6160553603       -1.6919569180
 H       -13.2929695120        8.5340933585        0.8851839480
 H       -12.2231284312        9.6782755028        1.8227369136
 H       -11.6323643792        7.8075222166        3.2873444050
 H       -11.4870420571        6.7525190826        2.0221894373
 H       -13.8330073875        3.1413531337        1.5119447035
 H       -14.8818986770        3.0811903280        2.9315929367
 H       -11.9460416116        1.8415295032        2.7369441149
 H       -13.2680799553        0.9157395766        3.0098106594
 H        -8.8693175663        3.5745191896        5.4211133067
 H        -9.1621848217        4.2774862788        3.8821218515
 H        -7.3242048303        2.0004210107        4.6084637237
 H        -6.8872169659        3.5217949204        4.9352912065
 H        -3.9288760209        0.1022521806        2.7217636130
 H        -5.4040303094       -1.0035702595        2.7094515130
 H        -5.2079595155        0.2168341204        3.9113089497
 H        -4.4010876028        2.6811818061        0.4431480367
 H        -4.5894479934        4.2641037701        1.0796440746
 H        -6.0003420291        3.4924155950        0.2782943922
 H        -4.6036921637        2.1039560118        4.1936942219
 H        -4.2380718558        3.7836047953        3.7309051130
 H        -3.3407235658        2.5245078076        2.7590538979
 H       -11.3496098934        0.8516624975        6.9302407023
 H       -10.7118848417        2.4831009327        6.9552592772
 H        -9.6689241215        0.9814976034        6.7600176704
 H       -11.8156815722       -0.1569309859        3.9844328729
 H       -10.8757344901       -0.6006384974        5.4345979081
 H       -10.1079479503       -0.1563291084        3.8634242676
 H       -13.4245686286        5.2033553006        6.0184379089
 H       -13.8119259420        6.8371229013        5.5962774007
 H       -12.1503125840        6.1087364934        5.2474944069
 H       -15.5027045331        4.4481737425        4.3059765296
 H       -15.7204231609        5.4495712001        2.7896500665
 H       -15.8624988926        6.2194200342        4.4015670799
 H       -10.1440992292        9.8388373405       -2.1750048705
 H        -9.7439255314        8.3584777155       -2.9357501539
 H        -8.9405151059        8.9899697874       -1.4124930978
 H       -11.7655906753        6.2005563415       -1.6539494012
 H       -12.6465737895        7.5843866439       -2.1337246262
 H       -12.5955120351        7.0400332423       -0.4806168290
 H       -10.1581654045        0.7517716536       -1.5102085139
 H       -10.9418719374        0.8899874722       -3.0922793459
 H       -11.3068971350        1.8018380788       -1.6883943646
 H        -8.3801773596        1.2061410346       -1.1234784956
 H        -7.1133719027        1.7909207722       -2.0495396960
 H        -8.1337733416        0.4835318570       -2.7668172116
 H        -5.0485931635        1.3867807240       -7.4064043138
 H        -4.5310750944       -0.1075199522       -6.5059024873
 H        -5.3685079456        1.3291266742       -5.6232725215
 H        -7.9361011670       -0.3013596369       -8.6943745036
 H        -6.4755807058       -1.4031540242       -8.6014279490
 H        -6.3460055786        0.3538109331       -9.0672819306
 Na       -9.8967989208        4.2169079388        1.4690791886
