117

 C        -8.4299180792       -2.2886916592       -5.9666349017
 C        -7.0986521423       -1.5480540736       -5.8885978105
 O        -6.2043303556       -1.9470986448       -5.2549573856
 C        -6.8360284345       -0.3082360607       -6.9314568517
 C        -7.8528671676        0.8222754401       -6.8143419348
 O        -8.4843234708        1.1932633149       -7.8139818294
 C        -8.0380945493        1.6908715925       -5.4150407548
 C        -9.3840815550        2.3989326766       -5.3050138139
 C        -9.4663218213        3.3055994341       -4.0351236360
 O        -9.3668144383        4.4911242183       -4.1378231654
 C        -9.4258142435        2.5596200707       -2.5794909205
 C        -9.6057911696        3.5107033915       -1.2639511041
 O       -10.4532076540        3.3204227151       -0.3964786113
 C        -8.6328568029        4.7701190356       -1.0496341635
 C        -9.2486968145        6.1428908164       -1.5884492546
 C        -9.9074428570        6.9533279511       -0.4283999428
 O        -9.8507573019        6.4982666714        0.7359129311
 C       -10.9975746200        8.0029340807       -0.6995930598
 C       -10.9776477477        9.0735521327        0.4544253598
 O       -10.1310820137        9.9443721608        0.3968106300
 C       -12.1786150101        9.1789156799        1.4112151434
 C       -12.1890711195        7.9123536008        2.3465978628
 C       -13.4102724449        7.0305087526        2.2795849876
 O       -14.1933361247        7.1348614660        1.3693064231
 C       -13.8080691744        5.9464967999        3.4217610198
 C       -13.0535845416        4.5747639100        3.1745476137
 O       -11.8186978700        4.6038825968        3.0630960006
 C       -13.6974385345        3.2222992367        3.0636544594
 C       -12.7955513340        2.1025358612        3.5123203507
 C       -12.1448364122        2.4088146476        4.8904463465
 O       -12.8569120024        2.7772987997        5.7708086430
 C       -10.5075032940        2.0929474645        5.2627676231
 C        -9.8196306294        2.7138411547        4.1018736121
 O       -10.1762478262        2.3363909549        2.9313459681
 C        -8.6951673063        3.8105567492        4.2623362909
 C        -7.3269750644        3.1379905898        3.9917425948
 C        -7.0174670855        2.8323827276        2.5751363900
 O        -7.7369254358        3.1586009779        1.6668285464
 C        -5.6269642632        2.1079570308        2.3402419778
 C        -5.9672681499        0.5945350834        2.0689380506
 O        -6.4965234641        0.4015211568        0.9988509099
 C        -5.5739917869       -0.3902560869        3.0757593792
 C        -5.0114354274        2.7241008987        1.0786030936
 C        -4.6552886264        2.1892519904        3.5552333251
 C       -10.1017172405        2.4685412413        6.6763958701
 C       -10.3913203511        0.5514402932        4.9638507466
 C       -13.3896887652        6.5541597082        4.8487260544
 C       -15.3560950791        5.7799489067        3.4466598929
 C       -10.4313807506        8.7463251609       -1.9364770912
 C       -12.2134012218        7.1722573760       -0.9917628734
 C       -10.3651994711        1.3700702160       -2.3321692571
 C        -8.0019706114        1.9068631067       -2.2181614435
 C        -5.4928260716        0.2914841794       -6.3730716621
 C        -6.8593137129       -0.7898514340       -8.4180024549
 H        -9.3296999972       -1.6036920858       -6.1467157745
 H        -8.6386767029       -2.7734628954       -5.0096393265
 H        -8.3476760829       -3.0744483594       -6.7213771655
 H        -7.1997715708        2.3664272256       -5.2292552395
 H        -7.8810316862        0.9699801585       -4.6561184147
 H       -10.0805997967        1.6069788564       -4.9789041076
 H        -9.6972087272        2.9772036544       -6.1874900433
 H        -7.7026594111        4.3399887818       -1.3998355843
 H        -8.6686413638        4.8280450723        0.0864786825
 H       -10.0488430393        5.7894717705       -2.2596073488
 H        -8.5271098623        6.6100913669       -2.2403565668
 H       -13.0428805067        9.3245163355        0.7808351339
 H       -11.9173578610        9.9988311841        2.0334790663
 H       -11.9144992698        8.4651275811        3.2477248693
 H       -11.2442278145        7.3021500615        2.2738540506
 H       -13.9134524961        2.9510372401        1.9892020106
 H       -14.8098421894        3.2082099614        3.4699424867
 H       -11.9763191964        1.9635244794        2.9094063453
 H       -13.2383716412        1.1591311487        3.7518734692
 H        -8.8140376050        4.1580207423        5.2522720096
 H        -8.7892304058        4.6626428723        3.6145807780
 H        -7.5153718299        2.1469073060        4.4183902744
 H        -6.4102591636        3.5044701052        4.4788274512
 H        -4.5658155268       -0.1372345695        3.3163510755
 H        -5.5757938069       -1.3905577497        2.7935981559
 H        -6.1796978926       -0.2558416346        3.9890881015
 H        -3.9818963507        3.1336909666        1.1392720402
 H        -5.5266696414        3.6414471045        0.6921634489
 H        -4.9309404543        1.9703175045        0.2870553598
 H        -5.2779680769        1.5150343677        4.2301639831
 H        -4.6185198751        3.0904626611        4.1317963416
 H        -3.7513902969        1.8825692120        3.0981072994
 H       -10.7076997332        1.8763659463        7.3467897016
 H       -10.4223628403        3.5312580673        6.8099748720
 H        -9.0724059306        2.1944298622        6.7899844884
 H       -10.2033047389        0.3607835433        3.9344935448
 H       -11.3752351076        0.0882965434        5.1593461682
 H        -9.6375084551        0.1319481630        5.6386694765
 H       -13.5502989701        7.6087321658        4.8447448784
 H       -12.2655843525        6.4712313232        4.9944582323
 H       -13.9558882484        6.2678405673        5.7483022575
 H       -15.5019676395        5.0454684867        4.3198148362
 H       -15.7697064139        5.3828044963        2.4705475660
 H       -15.8765641005        6.6961399095        3.8786834230
 H       -11.0293645160        9.5506836024       -2.3582056436
 H       -10.3522083533        8.0916503636       -2.7902187738
 H        -9.4210347542        9.1068043108       -1.6896597303
 H       -12.5352775763        7.5479281291       -1.9786893074
 H       -12.9605122808        7.3487721201       -0.2396046617
 H       -11.9761211393        6.1089478663       -1.0514002865
 H       -10.3964971424        1.1043684001       -1.2005161653
 H       -10.0209418451        0.4721091791       -2.9095498617
 H       -11.3959573256        1.5498598140       -2.6087944304
 H        -7.7957571656        2.0678963746       -1.2007191715
 H        -7.2683564966        2.4977215919       -2.7272624085
 H        -7.8826181739        1.0054768039       -2.6695424555
 H        -5.1154275840        1.0251893556       -7.0604055581
 H        -4.8104761195       -0.5453293234       -6.4105334558
 H        -5.5756993186        0.5366796506       -5.3228805455
 H        -7.7339194154       -1.3635068162       -8.8089948312
 H        -5.9128235551       -1.1352209005       -8.6361172321
 H        -6.8938090208        0.0653592085       -9.0997169183
 Na       -9.7846461598        4.4565089926        1.7984807550
