117

 C        -8.4186809058       -2.3500176325       -6.1579289660
 C        -7.0621987448       -1.6508151714       -5.9963891298
 O        -6.2498473438       -1.9427418898       -5.0689472956
 C        -6.7384950311       -0.4001629616       -6.9674340723
 C        -7.9567125305        0.6567823622       -6.8400676730
 O        -8.8097394053        0.9188157564       -7.7040035870
 C        -8.0044388869        1.4982746481       -5.5131035887
 C        -9.3016304787        2.2066261832       -5.3311713972
 C        -9.3058437603        3.1790637203       -4.0758109533
 O        -9.3529836715        4.4006212550       -4.2433385052
 C        -9.2905122705        2.6383420642       -2.4516631954
 C        -9.6909644920        3.7049007962       -1.3246942053
 O       -10.4438425390        3.4132315143       -0.4260669430
 C        -8.6701468216        4.8852300881       -1.1657579513
 C        -9.4731366431        6.1222251095       -1.4898512612
 C       -10.0130580272        6.7566205227       -0.3373421997
 O        -9.8713032158        6.4230847067        0.8501101206
 C       -10.9046340097        8.0330671201       -0.8231421581
 C       -10.9419648555        9.2643070348        0.3502202202
 O       -10.0279774246       10.0485421133        0.5380290169
 C       -12.1753179278        9.1677673579        1.4045535619
 C       -12.1199562704        7.9490674969        2.3907093805
 C       -13.4760898198        7.0193691404        2.2235429011
 O       -14.1725533199        7.2020677508        1.2539078635
 C       -13.8186193715        6.0246423074        3.3317917315
 C       -13.0080548038        4.6418586046        3.1802407417
 O       -11.8088968735        4.7300458901        3.1285482602
 C       -13.7949176292        3.2503215922        3.2434970333
 C       -12.7427795607        2.1947125161        3.5251849970
 C       -12.1064253132        2.4743050269        5.0424617713
 O       -12.7576932864        2.9451451856        5.9169627798
 C       -10.5456243334        2.1611793525        5.3081891719
 C        -9.8215461168        2.8174886954        4.1280997356
 O        -9.9231344254        2.3304405261        2.9831761528
 C        -8.7214603477        3.8936066466        4.1619834158
 C        -7.3600043599        3.1271785407        4.1280589794
 C        -6.8845254208        2.8807183608        2.6038073908
 O        -7.5552320707        3.1398483982        1.6278401756
 C        -5.5725040279        2.0451270855        2.3697079713
 C        -6.0732105199        0.5398951743        2.0775151191
 O        -6.6791741002        0.2514762541        1.0304723742
 C        -5.7829350586       -0.6617832620        3.0515009865
 C        -4.9993033320        2.6577458588        1.0222532484
 C        -4.5960704146        2.1497913261        3.6284332974
 C       -10.0587387074        2.6606314731        6.6566095563
 C       -10.3672281061        0.5768273750        5.1064749936
 C       -13.4162941246        6.5902652256        4.7066397845
 C       -15.3757868212        5.9288113496        3.4031686940
 C       -10.6113278793        8.7612976944       -2.1775795279
 C       -12.2948232976        7.1554865529       -1.0445753091
 C       -10.3359712759        1.4607325327       -2.3343082382
 C        -7.9477099885        2.0889031330       -2.0085605746
 C        -5.3535513341        0.1132843599       -6.4968130063
 C        -6.8192961370       -0.7711565030       -8.3582166607
 H        -9.2143552795       -1.5231657717       -6.2903774806
 H        -8.6886456298       -2.7921647281       -5.1875324028
 H        -8.4991744643       -3.2004452377       -6.9096774869
 H        -7.1917367784        2.3238307040       -5.6085069389
 H        -7.5408383108        0.9169807855       -4.7712185897
 H       -10.1919069986        1.5864189265       -5.1533891090
 H        -9.4651008469        2.9422705268       -6.1558142638
 H        -7.9365579211        4.6050559027       -1.8675309565
 H        -8.3442707072        4.9037981586       -0.1195684838
 H        -9.9671962044        6.0190756105       -2.4349422065
 H        -8.5708221192        6.8314181562       -1.6280393738
 H       -12.9965590144        8.8919770311        0.7270481555
 H       -12.2817134202       10.1494876572        1.8167011773
 H       -11.9224016426        8.4119477354        3.4405201707
 H       -11.0664791801        7.4501420504        2.2468554321
 H       -14.2938755666        3.0584334836        2.3155754951
 H       -14.7079415312        3.0258682843        3.9407569358
 H       -11.8570770027        2.1027581926        2.9553653861
 H       -13.1526490844        1.2622151079        3.6889965365
 H        -8.8400749922        4.5243573858        5.0891817332
 H        -8.7700429952        4.4710543135        3.2973811972
 H        -7.4235906589        2.2777580566        4.8326146850
 H        -6.5853330103        3.8263434242        4.4309247166
 H        -4.7709246958       -1.0219107666        3.1557715524
 H        -6.3442054357       -1.4902523485        2.7044929592
 H        -6.2049722018       -0.3581489000        4.0573798817
 H        -3.9543604721        3.1360684734        1.0109157571
 H        -5.5629307512        3.4408857644        0.5510093664
 H        -4.8382028928        1.8047821468        0.3511043687
 H        -5.1788040705        2.0106786892        4.5392945291
 H        -4.1965216487        3.1619047827        3.6435507608
 H        -3.8161575751        1.4694604494        3.2533695354
 H       -10.5887578977        2.1240260104        7.4092631389
 H       -10.3496485325        3.7077694562        6.7646709027
 H        -9.0851431765        2.4644326364        6.6338795680
 H       -10.2467334890        0.4464803082        4.0643182667
 H       -11.2471874272       -0.0132129400        5.3607482521
 H        -9.4611753136        0.2958857216        5.6799007958
 H       -13.2671940998        7.6475627587        4.6924998549
 H       -12.5132396272        6.1803350544        5.2435368846
 H       -14.2872793552        6.6300793371        5.3848040021
 H       -15.8688703000        5.2211478316        4.1066629563
 H       -15.5219434929        5.7132996163        2.2885761004
 H       -15.8067941244        6.9461351160        3.6945262396
 H       -11.3554743556        9.5049917382       -2.4535885134
 H       -10.7172801590        8.0880157339       -2.9694471260
 H        -9.5643691523        9.1839635908       -2.2969131724
 H       -12.7710927547        7.7779874207       -1.6871981706
 H       -12.8012351136        7.0174291432       -0.1764753828
 H       -12.1314931361        6.2008454907       -1.5381037581
 H       -10.6513296721        1.2219792114       -1.4147553818
 H        -9.9698737272        0.5937256137       -2.7991082759
 H       -11.2131464146        1.8001999787       -2.9845299949
 H        -7.8953264891        1.9543821011       -0.9380715365
 H        -7.1358526487        2.7077737854       -2.3413496398
 H        -7.8178760958        1.2521379193       -2.6413233494
 H        -5.0835369875        0.8608093256       -7.2654757140
 H        -4.5587262355       -0.6493762414       -6.4158189175
 H        -5.5000527210        0.4861785406       -5.4738029864
 H        -7.7913228029       -1.0165272917       -8.6942588947
 H        -6.0139791901       -1.4120835072       -8.6920027662
 H        -6.6121545627        0.1424535722       -9.0320726646
 Na       -9.8528918733        4.3328539832        1.7555759581
