117

 C        -7.8937894782       -3.1554480585       -6.7174947884
 C        -7.2185812267       -1.9534958025       -6.0442955467
 O        -6.8691756742       -1.7866553173       -4.8438485017
 C        -6.8475504247       -0.7639386456       -7.0680435411
 C        -7.9824174802        0.2307750831       -6.5919273299
 O        -9.1481597171       -0.1378302762       -6.8601522257
 C        -7.6743157548        1.3736898935       -5.6507271448
 C        -8.9821899120        1.8355432413       -5.0821062321
 C        -8.9762767028        2.8586167511       -3.9744040295
 O        -8.9113629177        4.0819813571       -4.2463432663
 C        -9.0285808168        2.4177357508       -2.3869583454
 C        -9.3508894999        3.7908628279       -1.5288926123
 O       -10.4200721805        3.8537952740       -0.9761908040
 C        -8.2906029973        5.0271092627       -1.5241879757
 C        -9.2084661924        6.3794552452       -1.9149205191
 C       -10.0706068329        6.8114055898       -0.7591674707
 O       -10.3343572567        6.2138025180        0.2742297631
 C       -11.0483397894        8.1104620800       -1.0058156305
 C       -10.9414136083        9.0794054531        0.3772492976
 O        -9.9517871935        9.7512107925        0.3959726552
 C       -12.1277907525        9.2354854410        1.4353283607
 C       -12.3394859522        8.0939638495        2.4544985582
 C       -13.6652747070        7.3544860592        2.2981060108
 O       -14.2570596732        7.5354706163        1.2481734451
 C       -13.9587645006        6.3715892904        3.5043886551
 C       -13.0247899724        5.0391149831        3.2547999132
 O       -11.9877303863        5.0621426052        2.6486809576
 C       -13.6942814586        3.6346950876        3.8370260119
 C       -12.5111232458        2.5317410667        4.1124908078
 C       -11.8562314597        2.9141598970        5.4056028484
 O       -12.4182216481        3.6286256497        6.2194149505
 C       -10.3800004297        2.3990316167        5.5043213953
 C        -9.5766846626        2.8287925921        4.1576798413
 O        -9.8884842015        2.2656269171        3.1096321848
 C        -8.4777123451        4.0641036688        4.1507989302
 C        -7.0408884562        3.3836356846        4.0504036870
 C        -6.7201132770        2.8725052780        2.5337869126
 O        -7.2029745748        3.4565545712        1.6079098601
 C        -5.6977504808        1.7355218201        2.3647907960
 C        -6.5974988291        0.3990329171        2.1198919156
 O        -7.4364731895        0.4717398498        1.2232085088
 C        -6.5308757695       -0.8276712535        3.1654205798
 C        -4.8604612239        2.0168330591        1.0523477173
 C        -4.6433659109        1.6622693260        3.6342039847
 C        -9.7019364674        3.0809874387        6.8472881912
 C       -10.4684221456        0.8045877579        5.6825923636
 C       -13.8299298946        7.1051991814        4.8200361734
 C       -15.5311592765        5.9044153731        3.3424808425
 C       -10.7542808152        9.0966380058       -2.0892279055
 C       -12.4908656270        7.6130895993       -1.3922314121
 C       -10.2381062027        1.5250358129       -1.9460590065
 C        -7.7041396451        1.6014031599       -1.9959818972
 C        -5.4066952158       -0.1270131405       -6.7868522299
 C        -6.9340212752       -0.9637860636       -8.6695169983
 H        -8.6996012083       -2.7566793587       -7.3132610394
 H        -8.2091583693       -3.9872834432       -6.0534189823
 H        -7.2042606992       -3.7243862713       -7.3670065653
 H        -6.9456605613        2.1050890675       -6.1196699326
 H        -7.1422976277        0.7955897860       -4.9473547902
 H        -9.6022606305        0.9888900765       -4.8095109116
 H        -9.7084083329        2.2615606695       -5.7802428286
 H        -7.4265280831        4.6967762726       -2.1841180053
 H        -7.9550419289        5.0883717926       -0.4587427339
 H        -9.8714672592        6.1513285237       -2.7715124062
 H        -8.4922233914        7.0120763811       -2.5223414491
 H       -13.0776054926        9.3607101368        0.9141328312
 H       -11.9628072505       10.2046614811        1.9081503539
 H       -12.1844173047        8.5730614964        3.4495842365
 H       -11.6287196090        7.2038755739        2.1911176203
 H       -14.3294427585        3.0639372765        3.0906409778
 H       -14.4790011646        3.7745025590        4.6601537818
 H       -12.0474544564        2.6434146575        3.1277163507
 H       -12.7551935522        1.5495421468        4.2422208548
 H        -8.5234421407        4.5624041227        5.1032639251
 H        -8.6331971301        4.7428658527        3.3700818059
 H        -6.8108586198        2.6608226431        4.8429269001
 H        -6.4524063492        4.2872661104        4.1158536950
 H        -6.6270045534       -1.7958276259        2.7619267900
 H        -7.5240605932       -0.6894951073        3.6123937491
 H        -5.8033140951       -0.7644302768        3.9065981109
 H        -4.7168790310        3.1170536718        0.8752166303
 H        -5.3813519774        1.7539551235        0.1351809793
 H        -3.8149955365        1.6225570615        0.9541962997
 H        -5.2194616602        1.3481768983        4.4475081314
 H        -4.2909448883        2.7040966806        3.5404043482
 H        -3.8922907636        0.8738023453        3.3970806003
 H       -10.3289512225        2.7347284617        7.6508092092
 H        -9.7586255675        4.0983716323        6.8254507745
 H        -8.6257222266        2.7827663298        6.8646397302
 H       -11.1127534046        0.4921529033        4.8585420081
 H       -10.9110714979        0.5297314689        6.6230103745
 H        -9.4562558976        0.3816988334        5.5467932750
 H       -14.8956567317        7.4049369315        4.9414468833
 H       -13.1900274543        7.9461574163        5.0731524417
 H       -13.6308256273        6.4030831046        5.6496802442
 H       -15.6557041267        5.3307174880        4.2856777967
 H       -15.5154003769        5.2693525283        2.4160629098
 H       -16.1762099468        6.8348975207        3.1850504852
 H       -11.4643919991        9.9236459307       -2.1160943436
 H       -10.7550559575        8.5577164582       -3.0173489602
 H        -9.7042950875        9.4351163319       -2.1628261197
 H       -13.0132675178        8.5145512498       -1.2708006571
 H       -12.8680629522        6.8785903960       -0.6293248086
 H       -12.6334750662        7.2562152148       -2.3576109547
 H       -10.0894707387        1.4727958864       -0.8924965661
 H       -10.2834669346        0.4657496968       -2.2671987636
 H       -11.1915345858        2.0573766721       -2.2698052673
 H        -7.7586819800        1.4508529570       -0.9586181759
 H        -6.8371713122        2.0451343958       -2.3299971069
 H        -7.8549140979        0.5835041677       -2.3619392889
 H        -5.3758358033        0.9131278268       -7.0644424659
 H        -4.7145387797       -0.7079655894       -7.3406350960
 H        -5.1776958742       -0.2918256303       -5.7631540470
 H        -7.8389952378       -1.3187269572       -9.0365082143
 H        -6.2408045831       -1.8027723697       -8.9385627643
 H        -6.5897585541       -0.0888784542       -9.2897044383
 Na       -9.9612622939        4.0876177958        1.3512147562
