117

 C        -6.8523116160       -3.7145690566       -6.8118890072
 C        -7.1302579619       -2.3815648872       -6.1528794595
 O        -7.2025332177       -2.2932085112       -4.9076198346
 C        -7.0764778655       -0.9938223847       -7.0196818127
 C        -8.1191528930        0.0924450177       -6.7165925232
 O        -9.3474095951       -0.3110561060       -6.8219914046
 C        -7.8998196986        1.3101699430       -5.9217035552
 C        -9.0603365172        1.5340633012       -4.9700574500
 C        -8.8373860423        2.6860945283       -3.9554336118
 O        -8.3564349877        3.7479327368       -4.3997181585
 C        -8.9759121091        2.5994106699       -2.3375705804
 C        -9.4324015513        3.7219366744       -1.4713060603
 O       -10.3606828046        3.5874915933       -0.7062762549
 C        -8.5072499493        4.9496962757       -1.5695310162
 C        -9.2375201608        6.3215301825       -1.8680013079
 C       -10.1555006674        6.8375152863       -0.8504974310
 O       -10.1811829318        6.1774908821        0.1433593630
 C       -11.0284505489        8.1593720283       -1.1092445737
 C       -10.8737892875        8.9418494525        0.2039924277
 O        -9.7277482493        9.1351227440        0.5131503869
 C       -12.0522754700        9.2521472336        1.1048781867
 C       -12.2573061784        8.0133964437        2.1032980063
 C       -13.7153433173        7.6207922746        2.2277740615
 O       -14.6312288725        7.9548987420        1.5072461658
 C       -14.0057223615        6.4340195628        3.3311047551
 C       -13.1065227489        5.1684276522        3.2102848386
 O       -12.0805607220        5.0572452595        2.5961315808
 C       -13.5597845703        3.9445182366        4.0188484225
 C       -12.5777693157        2.8837837473        4.5688787751
 C       -11.6093855773        3.4357580635        5.6987241087
 O       -11.8090926929        4.3255704308        6.4988650820
 C       -10.1398823026        2.7478561514        5.6820902309
 C        -9.4490870812        3.2301947341        4.3307749455
 O        -9.9418898135        2.8936910222        3.2501001616
 C        -8.2639337240        4.1226902740        4.3608925861
 C        -7.0163551554        3.3733328088        3.9658195660
 C        -6.8768809718        2.9560734536        2.4855167409
 O        -7.6449948932        3.4107604707        1.6978251005
 C        -6.0028267366        1.6585228149        2.2925546616
 C        -7.0513441102        0.5805399014        2.1416480780
 O        -7.9247356005        0.6856720735        1.2933948189
 C        -6.8630918563       -0.5740649978        3.1021319605
 C        -5.2437455783        1.5969341772        0.9287967951
 C        -5.0365335953        1.4075701130        3.5635785033
 C        -9.3685284878        3.1515005694        6.8814600586
 C       -10.3115058672        1.1621248563        5.4568692919
 C       -13.8420873357        6.7670017138        4.8710450823
 C       -15.5766332377        6.1318962989        3.0864245023
 C       -10.3578999448        8.8229567598       -2.3366231620
 C       -12.3839380841        7.6935531831       -1.5093078392
 C        -9.8783841314        1.3995053397       -1.9414216522
 C        -7.6002197185        2.0842245223       -1.8792589399
 C        -5.6331353415       -0.5202027027       -6.7707139254
 C        -7.2559683234       -1.3380197838       -8.5443487809
 H        -7.6135530015       -4.0135873152       -7.5296939540
 H        -6.6010419242       -4.4875532650       -6.1516198563
 H        -5.9582759699       -3.6564081018       -7.3969962079
 H        -7.7600218800        2.1717092900       -6.6510817395
 H        -6.9740794730        1.1390831133       -5.4847483180
 H        -9.2914247022        0.6308341143       -4.3621371823
 H       -10.0318901965        1.4985089360       -5.5049342590
 H        -7.6258217229        4.6952213968       -2.1185440198
 H        -8.1574664646        5.0555114793       -0.5083876274
 H        -9.5148728520        6.3275244778       -2.8695734796
 H        -8.3811309002        7.0071451585       -1.9726159515
 H       -12.9526878669        9.5098135948        0.4912113521
 H       -11.9762379435       10.1422348795        1.7180383138
 H       -11.7178200692        8.2134704332        2.9668477552
 H       -12.0219363321        7.1164954845        1.6223936915
 H       -14.3144622600        3.4003965266        3.4306070572
 H       -14.0478452650        4.0748147808        5.0901544324
 H       -11.8929510616        2.4886768671        3.7591055529
 H       -13.2359897458        2.0804718775        4.8435438780
 H        -8.2374314296        4.7128834274        5.3389429904
 H        -8.5720936178        4.8419908646        3.6109639950
 H        -6.8560255073        2.4447880291        4.5491459733
 H        -6.1841257686        4.1005580416        4.1257494922
 H        -7.8214224250       -1.1197610336        3.1518856629
 H        -6.8330595045       -0.1997287751        4.1443454371
 H        -5.9726435433       -1.2331670554        2.9384691035
 H        -4.5161953389        2.4186440826        0.8401490876
 H        -5.8783120259        1.5572328432        0.1140542295
 H        -4.6379761151        0.7493356867        0.7373886924
 H        -5.6441138829        1.0310553035        4.3338577337
 H        -4.4831736770        2.3038798382        3.5904050267
 H        -4.5322623064        0.5051515413        3.2955424330
 H        -9.9257442721        2.6771771619        7.7751134504
 H        -9.3050037980        4.2308680337        6.8820201759
 H        -8.3153379668        2.7603045632        6.7638539484
 H       -10.1853492531        0.8798110775        4.4485033563
 H       -11.2576229332        0.8969569919        5.9372008142
 H        -9.4841555319        0.6525126999        6.0201781534
 H       -14.2893073931        7.7134750430        5.0546602477
 H       -12.8270021653        6.9038420677        5.2832391485
 H       -14.3545091016        5.9812658944        5.4512588323
 H       -15.9258385886        5.4007750151        3.7201350537
 H       -15.5451841668        5.7872994421        2.1075700187
 H       -15.9718554815        7.1048509990        3.0572754905
 H       -10.9375734605        9.7123728534       -2.5594730806
 H       -10.3070181019        8.2359718999       -3.1903063770
 H        -9.2677898840        9.1303689151       -2.2414848959
 H       -13.2504207394        8.4092084077       -1.5446762021
 H       -12.6827592301        7.0232841591       -0.6109280888
 H       -12.2782438832        7.1258717566       -2.4891405478
 H        -9.9227359413        1.3630380479       -0.8774968268
 H        -9.4196253409        0.4689345910       -2.4039955942
 H       -10.9393284478        1.6054167775       -2.3812598456
 H        -7.5582606010        2.0631940189       -0.7385237171
 H        -6.8366554577        2.7593897780       -2.3319704386
 H        -7.5403506261        0.9827193827       -2.0731605888
 H        -5.5768125593        0.3514263019       -7.4731099465
 H        -4.9402556707       -1.3079400988       -7.1213317428
 H        -5.4547933733       -0.1364889670       -5.7532112907
 H        -8.0700359694       -1.8673731697       -8.9268700161
 H        -6.4125720647       -1.8831282429       -8.9277577777
 H        -7.2200847001       -0.2740002506       -8.9560043348
 Na       -9.9343401235        4.3751225712        1.4152997403
