117

 C        -6.5754348852       -3.5931729343       -6.8658532161
 C        -7.0791189900       -2.4261622954       -6.1433849368
 O        -7.3556106971       -2.4747243551       -4.9670810428
 C        -7.0873865262       -1.1027439465       -7.1149794823
 C        -8.3571380250       -0.2254151228       -6.6159484498
 O        -9.4939231479       -0.4563500544       -6.9143739736
 C        -7.8984676345        1.1874681760       -5.9491883828
 C        -8.9742629770        1.4968480555       -4.9202405622
 C        -8.7082530530        2.6928650918       -3.9513253315
 O        -8.2667655671        3.7789462817       -4.3788682082
 C        -9.0265239537        2.4660538184       -2.4500259586
 C        -9.4475180587        3.6950275441       -1.5458941515
 O       -10.2816683794        3.5214816365       -0.6569582599
 C        -8.4938754170        4.8894464976       -1.4873371651
 C        -9.1656084201        6.2989452750       -1.8881783576
 C       -10.1246713077        6.6836152451       -0.8473788283
 O       -10.1414695857        6.3617077728        0.3460810202
 C       -10.9844805791        7.9518882082       -1.2466251597
 C       -10.8350461155        8.8824933725        0.1747794782
 O        -9.7162659063        9.0604169169        0.6004412216
 C       -11.9960651820        9.2106195054        1.1158719372
 C       -12.2398223406        7.9840348271        1.9945295728
 C       -13.7004891750        7.5881455504        2.1525499798
 O       -14.6019273334        8.2093423611        1.5844020581
 C       -14.0250550789        6.5217788668        3.2770921196
 C       -13.0510715238        5.0844970813        3.2588429709
 O       -12.0493756794        5.0144429052        2.5741452439
 C       -13.6287567851        3.9930633413        4.2697525741
 C       -12.5806812584        2.9979434041        4.7676528543
 C       -11.5093687926        3.5535089544        5.6483974046
 O       -11.7461792872        4.4838192754        6.3861160926
 C       -10.0977932595        2.8335945560        5.6470547121
 C        -9.4761746849        3.4163706142        4.2970311199
 O       -10.0031795371        3.0617842341        3.2251302807
 C        -8.2066203230        4.3680405137        4.3779117942
 C        -6.8856763834        3.5793360038        4.1171378405
 C        -6.9378097383        2.9086556999        2.6020744715
 O        -7.6658560162        3.3803800744        1.7879526409
 C        -6.0712046522        1.7216130318        2.2717821231
 C        -7.3062070304        0.5600606866        2.1652505188
 O        -8.1114367068        0.5716485934        1.2872498638
 C        -7.0939439203       -0.7005065091        3.0370752674
 C        -5.3381205058        1.6306485068        0.9258583875
 C        -4.9838215405        1.4056512835        3.3478629059
 C        -9.3544190935        3.1936924251        6.9039948479
 C       -10.3023741736        1.2956977158        5.3809297058
 C       -13.8085788591        6.9683380766        4.7609836985
 C       -15.5627510349        6.0462222957        3.0994692909
 C       -10.3544227675        8.9310994990       -2.3436286357
 C       -12.4494375217        7.6639704159       -1.7147385643
 C        -9.9082454245        1.1618087766       -1.8054257883
 C        -7.5198112021        2.2398324647       -1.8133369420
 C        -5.6795079424       -0.4810458817       -6.8621193660
 C        -7.2068779779       -1.6268521059       -8.5485832982
 H        -7.2570082900       -3.8628573278       -7.5636118408
 H        -6.3306176705       -4.4296029893       -6.2185887067
 H        -5.6890382939       -3.4497174439       -7.4321244081
 H        -7.7841733786        1.9699667614       -6.7239880934
 H        -6.9325688709        1.0601568469       -5.5341162090
 H        -9.4354128792        0.6155710542       -4.4303831820
 H        -9.8736264546        1.7373805511       -5.4965887286
 H        -7.5597261866        4.4456364251       -1.9666644276
 H        -8.1958570910        4.9168470224       -0.4187846659
 H        -9.7353919023        6.1162355083       -2.8090367145
 H        -8.4770600645        7.1098570059       -2.2622410434
 H       -12.8453400835        9.7394571497        0.7446191485
 H       -11.6282404235        9.9542136847        1.8058928840
 H       -11.8455232239        8.2325650676        2.9585993691
 H       -11.7606460416        7.1355589130        1.5125958260
 H       -14.3501177938        3.3398357243        3.5468262062
 H       -14.1450756860        4.1723197051        5.2022921698
 H       -12.0482703451        2.5251944022        3.9390455751
 H       -13.0864163604        2.2337825616        5.2381941040
 H        -8.2720326882        4.9329238128        5.2889198841
 H        -8.4255164495        5.1114352710        3.6571146679
 H        -6.6880765465        2.7597690451        4.8408490022
 H        -6.0008457128        4.2267017804        4.0237706707
 H        -8.0434634202       -1.2246060827        3.0678311070
 H        -6.9905752822       -0.3796563359        4.1098636330
 H        -6.2973061635       -1.2822313126        2.7742212010
 H        -4.3864105726        2.0407832300        1.0467549894
 H        -5.8019207885        1.9432124487        0.0263221700
 H        -5.1192206289        0.6023808028        0.6162042974
 H        -5.4333869625        0.9138869151        4.1299884443
 H        -4.4726580392        2.3708231399        3.4035362851
 H        -4.4340358739        0.6259719155        2.8145380016
 H        -9.8979044460        2.6482650197        7.6320682658
 H        -9.3412140579        4.2317307686        7.0374749970
 H        -8.2557397575        2.7565884375        6.8349420124
 H       -10.2993117861        1.0048210592        4.3174806806
 H       -11.0564416041        0.9415317171        6.0401766020
 H        -9.3518350127        0.9093231643        5.7452700125
 H       -13.8072487020        8.0757342435        4.5401698145
 H       -12.8528469897        6.8278506516        5.1521320031
 H       -14.5540839456        6.5961501177        5.4753107574
 H       -15.7741763781        5.1897518998        3.7410342294
 H       -15.5267264892        5.7132359880        2.0775549536
 H       -16.0628925486        6.9788488746        3.1689175431
 H       -10.9905655434        9.7993238031       -2.5873073107
 H       -10.1028546149        8.4049496251       -3.2837315275
 H        -9.3693813544        9.2762814460       -2.0904655714
 H       -13.0161442023        8.5764476288       -1.3511535074
 H       -12.9781025647        6.9170710137       -1.0133827422
 H       -12.5724856307        7.5239518469       -2.7585369877
 H        -9.9969380798        1.4348010086       -0.6740618533
 H        -9.3855135010        0.1674629026       -2.0195632390
 H       -10.9020484263        1.1865846798       -2.1931466116
 H        -7.6418070116        1.8946003805       -0.7791202425
 H        -6.9486791202        3.1550523838       -1.9212997018
 H        -7.0268594156        1.3123541122       -2.2958350340
 H        -5.5886254520        0.3805642016       -7.5266672415
 H        -4.9048094084       -1.2051378315       -7.1053535696
 H        -5.6608733073       -0.0656849489       -5.8740590577
 H        -8.1405506366       -2.0337747850       -8.8339473062
 H        -6.4962002490       -2.4288161326       -8.7829451229
 H        -7.0537238961       -0.7764158227       -9.1774175677
 Na       -9.9353549871        4.3873960111        1.5078099174
