117

 C        -6.2343744641       -3.8613334745       -6.7776391674
 C        -7.0240636045       -2.5952885897       -6.1524867484
 O        -7.5368606576       -2.4509980011       -5.0924686439
 C        -7.0795592760       -1.2312372275       -7.1635299294
 C        -8.3417018655       -0.4013824697       -6.6846875873
 O        -9.4398479804       -0.6249374142       -6.9614919451
 C        -8.0699959188        1.0400453113       -5.9062524864
 C        -9.1487295995        1.4567681619       -4.8277295680
 C        -8.7173996893        2.6718849004       -3.9042331981
 O        -8.2458754103        3.6931216452       -4.1944130405
 C        -8.8917900582        2.2843517918       -2.2677236248
 C        -9.2416441278        3.5657074300       -1.4398872990
 O       -10.2621207724        3.5823268941       -0.7225711347
 C        -8.4158973164        4.8563552457       -1.4745892537
 C        -9.2956938292        6.1288654137       -1.9030302457
 C       -10.1170287170        6.7941135057       -0.8816522596
 O       -10.1568156637        6.5146126240        0.3236834620
 C       -10.9767977949        8.1121589386       -1.1210906946
 C       -10.7936359881        8.8379062088        0.1973115443
 O        -9.6343185914        9.0657677955        0.5000427960
 C       -11.9937356679        9.0814815122        1.0476087480
 C       -12.1657539567        7.9048634973        2.0051685677
 C       -13.6913931164        7.5660298778        2.2386951367
 O       -14.5405169523        8.2795766834        1.7484594470
 C       -14.0560727181        6.5302029710        3.2127685452
 C       -13.1999304539        5.0562702373        3.3115230175
 O       -12.1433000319        5.0069539031        2.6583497122
 C       -13.6946794616        4.0963073156        4.2905053538
 C       -12.6418358058        3.0323835889        4.7612886308
 C       -11.5020430077        3.6944195632        5.5993433173
 O       -11.6039860297        4.6636769441        6.2738524626
 C        -9.9817842728        2.9229087005        5.6469947714
 C        -9.4338596220        3.5779427307        4.3561903060
 O        -9.9720582678        3.2555509618        3.3308929983
 C        -8.1750894233        4.4967034006        4.2749248929
 C        -6.9210471789        3.7403025097        4.0465473940
 C        -6.9627000616        3.0072919059        2.6759989779
 O        -7.6896922964        3.4577008811        1.7784125054
 C        -6.1329768236        1.5411319139        2.3261496419
 C        -7.3167388482        0.3763999437        2.1514096485
 O        -8.2011066444        0.6031233844        1.3604698209
 C        -7.4049558396       -0.8846010827        3.0159547764
 C        -5.5634499878        1.8123922775        0.9267787395
 C        -4.9435283046        1.3368672598        3.2914187880
 C        -9.2812134963        3.1913048974        6.9371565318
 C       -10.2351053385        1.4382797430        5.4261349480
 C       -13.7969648976        7.3492297358        4.5178945234
 C       -15.5285197956        5.9568811780        3.0942313161
 C       -10.3589195350        8.9745054031       -2.2349703443
 C       -12.4029714242        7.6607931013       -1.6876929111
 C        -9.7609775507        1.0960668350       -2.0445984654
 C        -7.4393980055        2.0590133956       -1.7942184967
 C        -5.7631672295       -0.4916729450       -6.9955986926
 C        -7.2986356626       -1.6143460483       -8.5822547050
 H        -6.7604248864       -4.2525065447       -7.6725031922
 H        -6.1219302903       -4.6399791154       -6.0367733585
 H        -5.2607457302       -3.7135051998       -7.2203035614
 H        -7.8308373943        1.8110152180       -6.5808565665
 H        -7.0941680867        0.8566651262       -5.3095498577
 H        -9.4432586086        0.5678764229       -4.2741117400
 H       -10.1306058819        1.6657220080       -5.2369966041
 H        -7.7222772083        4.5321826526       -2.2291834826
 H        -7.8010351981        5.0678856184       -0.5832217688
 H        -9.7065613886        5.8858186186       -2.9517593100
 H        -8.5640283763        6.9139806510       -2.1919423590
 H       -12.8758579482        9.1957490277        0.4809978458
 H       -11.9682083896       10.0733385426        1.4841112199
 H       -11.7431455106        8.1075443264        3.0457906393
 H       -11.6547855069        7.0944885848        1.3956899756
 H       -14.6458176548        3.6848928265        3.8972029796
 H       -13.8516986184        4.5311781771        5.2400510033
 H       -12.1793307507        2.4151609611        3.9959479971
 H       -13.1634744839        2.2761121499        5.4290303663
 H        -8.0871064079        4.9621725215        5.2233177809
 H        -8.4619110710        5.3880006414        3.7127063785
 H        -6.8178085255        2.9212251504        4.7606668113
 H        -6.0071772968        4.3376715997        4.0789926622
 H        -8.2508986077       -1.4826964768        2.8150769988
 H        -7.4100767024       -0.6886620730        4.0453868164
 H        -6.4670195123       -1.3907943248        2.8000016510
 H        -4.5349208049        2.0631186015        0.9765606742
 H        -6.1449698241        2.5553119408        0.3325174578
 H        -5.6054828350        1.0270154448        0.1586845297
 H        -5.3423106150        1.1905240922        4.3286765982
 H        -4.4929499338        2.2641849451        3.0228555155
 H        -4.4210880577        0.4819671059        2.8697054072
 H        -9.7716616182        2.5329005993        7.5857652885
 H        -9.3336732314        4.2614078565        7.2608079186
 H        -8.3383406764        2.8488299194        6.8716360455
 H       -10.6658803885        1.1576137218        4.4459511264
 H       -10.6743464231        1.1190474509        6.3550340834
 H        -9.2617778546        1.0211485223        5.4004224419
 H       -13.4156514234        8.2874605293        4.1211105009
 H       -12.8803808218        6.9789921205        5.0108610976
 H       -14.6232122220        7.4341606212        5.2579617899
 H       -15.7004077852        5.1723140519        3.8831590620
 H       -15.6480937668        5.5540410912        2.0377902664
 H       -15.9767431977        6.9407895956        3.2253380151
 H       -10.8524863220        9.8702243721       -2.6138901216
 H       -10.1517466867        8.2170878775       -3.0672281287
 H        -9.3621416798        9.2147462895       -2.0029518358
 H       -13.1055110551        8.4469828123       -1.4926474640
 H       -12.8468117785        6.8952521283       -1.2090681653
 H       -12.2919580662        7.5321017217       -2.7618696628
 H       -10.0395607874        0.9230093908       -0.9818044260
 H        -9.3245642071        0.2520763621       -2.5028183442
 H       -10.6701312564        1.3738343681       -2.5486438617
 H        -7.3250254101        1.6461693815       -0.8237246285
 H        -6.9503053964        3.0079289096       -1.9630621067
 H        -6.9901049804        1.3546444970       -2.4645024878
 H        -5.8534255012        0.4624164655       -7.4394204876
 H        -5.0392788378       -1.0527387547       -7.5308994980
 H        -5.5811010182       -0.2838256508       -5.9696179199
 H        -8.2606459698       -2.2149711846       -8.5905114428
 H        -6.6019042919       -2.3542170500       -8.9625148758
 H        -7.4931527485       -0.7837947407       -9.1545146636
 Na       -9.9294950766        4.4260753834        1.4997433017
