117

 C        -6.1285691966       -3.8135306988       -6.4665888144
 C        -6.9698576572       -2.6060390409       -6.3250051534
 O        -7.5972303840       -2.6871024127       -5.2383221303
 C        -7.1270965075       -1.3217104791       -7.1568681787
 C        -8.3204226810       -0.3581850672       -6.6081944323
 O        -9.4249192420       -0.8619709523       -6.9956456370
 C        -8.1069682379        0.8899830169       -5.7404087728
 C        -9.2200597276        1.4102860881       -4.8411844340
 C        -8.7255966415        2.4575206153       -3.7854669050
 O        -8.2873546944        3.5448709953       -4.2002082390
 C        -8.7034270209        2.1871789147       -2.2026641730
 C        -9.2500227782        3.5417149750       -1.4161862277
 O       -10.2609726656        3.4978281076       -0.7308993949
 C        -8.4216086314        4.9385628746       -1.5880830139
 C        -9.3761093842        6.0182785693       -1.9541768157
 C       -10.0531593705        6.7835552298       -0.8325568031
 O       -10.0769883149        6.3137581741        0.2849651949
 C       -10.8270549379        8.1111173108       -1.2801011801
 C       -10.7504963866        8.9407729003        0.1541105534
 O        -9.6467289345        9.2692681090        0.4989618912
 C       -11.9987176310        9.0146368647        1.0356413431
 C       -12.1772080168        7.7824782255        1.9647822314
 C       -13.7035451239        7.5730977659        2.2024404316
 O       -14.5217546595        8.3216518188        1.7580586237
 C       -14.0304836170        6.5585114421        3.2476768568
 C       -13.1704625638        5.2139765355        3.4290253815
 O       -12.2507248261        5.0029199735        2.6969874817
 C       -13.7299198300        4.2077576777        4.4842627742
 C       -12.5531858373        3.1447753171        4.8671339162
 C       -11.4465411810        3.7556222748        5.6577151645
 O       -11.5545987037        4.8819154509        6.0956928993
 C       -10.0136332569        2.9883440860        5.7252225801
 C        -9.3947627887        3.6692319335        4.3870919851
 O        -9.9445764308        3.4064405738        3.3576334659
 C        -8.1510985947        4.5511601685        4.3095359453
 C        -6.9409209225        3.6613677864        4.0169797514
 C        -7.0975155422        2.9195240526        2.6884475062
 O        -7.6472278595        3.4820972372        1.7326682256
 C        -6.2765433839        1.6753586128        2.3473889989
 C        -7.3312189881        0.4370665076        2.1924364396
 O        -8.2147981743        0.6686540224        1.4189683721
 C        -7.4978148084       -0.9097291612        3.0052778950
 C        -5.7686625195        1.9632502974        0.8818451069
 C        -5.1333473091        1.1903129036        3.3685832550
 C        -9.2238704276        3.3343278745        6.9957746779
 C       -10.1255050452        1.4690662380        5.4366966425
 C       -13.8478148740        7.4940085936        4.5661446029
 C       -15.6037573217        6.0953569621        3.1069091336
 C       -10.2292677529        9.0339728980       -2.3374071101
 C       -12.3326268877        7.6723776195       -1.5562222689
 C        -9.6769267737        1.0885149688       -2.0456032563
 C        -7.2569241634        1.5864371375       -1.8532041536
 C        -5.7188299032       -0.5056894177       -7.1265976033
 C        -7.5000971627       -1.6360227501       -8.7269003527
 H        -6.2871083324       -4.5458717074       -7.3531689823
 H        -6.2628642990       -4.3116037481       -5.5045587147
 H        -5.0314852224       -3.6733493199       -6.6411663310
 H        -7.9467967260        1.6674730793       -6.5086017478
 H        -7.1068661818        0.8337660540       -5.2399447551
 H        -9.8563298529        0.6525612757       -4.4126174751
 H        -9.9655774815        1.9421210913       -5.4664878312
 H        -7.6686166634        4.7052632985       -2.2217455901
 H        -7.9516844566        5.2511012606       -0.6612727078
 H        -9.9819852958        5.5980451616       -2.7765850831
 H        -8.8117316753        6.7379534325       -2.5294589469
 H       -12.9132177056        9.0958345527        0.4161269708
 H       -12.0794729861       10.0058342529        1.4890052711
 H       -11.9829172142        7.9490831675        3.0691508510
 H       -11.5634290625        7.0094131957        1.4015920420
 H       -14.4274843058        3.7366739090        3.9643872516
 H       -14.0621965282        4.5941343291        5.4568955541
 H       -12.1543928684        2.7534574367        3.8181117942
 H       -12.9062589835        2.1276236887        5.3311419373
 H        -7.9885993630        5.2465613682        5.1956897603
 H        -8.3612353235        5.3610778187        3.5670417775
 H        -6.4420895840        3.0235691592        4.7198595809
 H        -6.1528018905        4.3477519774        3.6712315633
 H        -8.2505215229       -1.4980328003        2.5146609833
 H        -7.7671541199       -0.8247201794        4.0064734354
 H        -6.4944832442       -1.4331000443        2.9113037941
 H        -4.6190997915        2.0464912097        0.8938624175
 H        -6.2168168641        2.7373060115        0.2798025917
 H        -5.9385063458        1.1523034415        0.1991113836
 H        -5.6245728223        1.3078870439        4.3985632520
 H        -4.4047554090        1.9136919065        3.1215840258
 H        -4.9333324760        0.1747787580        3.0398339814
 H        -9.5203789357        2.6315874663        7.7864290262
 H        -9.2516212693        4.3743750138        7.2950216205
 H        -8.2498209442        2.9601272343        6.7852257427
 H       -10.7483660827        1.2453126230        4.6237556622
 H       -10.3649289472        1.0602343128        6.4261046902
 H        -9.1326461200        1.1015747528        5.1685415373
 H       -13.4367010495        8.4004973738        4.2395889923
 H       -13.1265263351        7.0430825369        5.3570508011
 H       -14.8536513912        7.6157108979        5.0155939922
 H       -16.0079047825        5.7099666827        4.0672063715
 H       -15.6831050669        5.3490024627        2.2735219859
 H       -15.8431349713        7.1674791231        2.8613797824
 H       -10.7993353975        9.9562869333       -2.2904013325
 H       -10.0481648958        8.7746197969       -3.3557444978
 H        -9.2082832181        9.3336467548       -1.9297080481
 H       -13.0391454886        8.3931029903       -1.5830286818
 H       -12.7291671420        7.0826785218       -0.7709759142
 H       -12.3217485706        7.1361218675       -2.5058506065
 H        -9.9789907557        0.9561581693       -1.1175607816
 H        -9.2130318747        0.2836468111       -2.5005188706
 H       -10.5930379907        1.3638774820       -2.6112533260
 H        -7.2629612959        1.0929166985       -0.8977723544
 H        -6.4570862053        2.3134116639       -1.9081658137
 H        -7.0203407754        0.9235939018       -2.6392096863
 H        -5.8630207542        0.5177528045       -7.3576903454
 H        -5.1277454250       -0.9209219564       -7.9061529228
 H        -5.2657493139       -0.4918491446       -6.1620592820
 H        -8.3172352523       -2.3718254929       -8.8221935797
 H        -6.7268687549       -2.1534850036       -9.2286802172
 H        -7.9251450780       -0.6973743836       -9.2000163905
 Na       -9.9427356402        4.5346173348        1.3462391922
