117

 C        -5.8185404176       -3.3651552435       -6.4208458073
 C        -7.1087589015       -2.5451776377       -6.2613338301
 O        -7.8714674612       -2.8394743454       -5.4109584890
 C        -7.2160852653       -1.3800764827       -7.2250564947
 C        -8.3459773901       -0.6478038204       -6.5621301213
 O        -9.4875903637       -0.8282610880       -6.6937580833
 C        -7.8276387429        0.4542486872       -5.4990788324
 C        -9.1592267199        1.1568549587       -5.0289468106
 C        -8.8321755041        2.2428409527       -3.9520560431
 O        -8.2726154373        3.2394392054       -4.2188151998
 C        -8.8199591306        1.8354139407       -2.3971461682
 C        -9.1036416947        3.2443196248       -1.6733941154
 O        -9.8716572833        3.1494814117       -0.7371367303
 C        -8.3322496109        4.5838734920       -1.8111908429
 C        -9.4231574159        5.6740090537       -2.2149473317
 C        -9.8907766928        6.6298447624       -1.0539793778
 O        -9.7877292102        6.2985306011        0.1114061237
 C       -10.6490728440        8.1508142237       -1.2626305469
 C       -10.6173381238        9.1976568803        0.1682478040
 O        -9.6209922974        9.8273307647        0.3941244856
 C       -11.9064282384        9.0630507096        1.0739791798
 C       -12.1740818222        7.7314841932        1.8489271841
 C       -13.6694590521        7.6442353673        2.2681545500
 O       -14.5255301201        8.1690111000        1.5555035485
 C       -14.1996921303        6.7097354449        3.6050475785
 C       -13.3002337401        5.4568780970        3.6275090769
 O       -12.4664383379        5.1720888469        2.7504128882
 C       -13.6436623625        4.4291897580        4.6855012507
 C       -12.5210956121        3.4184928734        4.9557889113
 C       -11.3115136958        4.0290672361        5.6118064507
 O       -11.3062174075        5.1536051182        6.0582701722
 C        -9.9466511150        3.2610168080        5.6868390547
 C        -9.3579384190        3.8243051860        4.3998521722
 O        -9.9947582223        3.5851399927        3.3758825589
 C        -8.0824621349        4.5755691433        4.3800467323
 C        -6.9866861735        3.6432983785        4.0649941046
 C        -7.1593278253        2.9912276368        2.6754913107
 O        -7.8186650699        3.5766841219        1.8504070998
 C        -6.4106107808        1.7061721654        2.3454099436
 C        -7.6562456954        0.5757509748        2.0384696517
 O        -8.5667048251        0.7975545811        1.2577231437
 C        -7.4803817341       -0.6217436205        2.8910719035
 C        -5.4280084226        1.5959724143        1.1132889972
 C        -5.4733981581        1.2716642347        3.5495944256
 C        -9.1811724317        3.6636638232        7.0009068396
 C       -10.0232923410        1.7356627718        5.6616515815
 C       -14.0945324464        7.4601424328        4.9939725376
 C       -15.6400923831        6.3885420948        3.2187665599
 C        -9.9688545133        8.9917169655       -2.4186027513
 C       -12.1246716906        7.6991071198       -1.6446650701
 C        -9.8291874619        0.8875712224       -1.7628895696
 C        -7.4634867901        1.2714154532       -2.1406844748
 C        -5.8657442845       -0.6769808182       -7.3512601410
 C        -7.5809749411       -1.8326168711       -8.6123007423
 H        -5.6578199105       -3.8025504442       -7.3658423722
 H        -5.7999953769       -4.1905046535       -5.7063790971
 H        -4.8881261808       -2.8268776035       -6.3934762693
 H        -7.1174412600        1.1516014315       -5.9395695792
 H        -7.3167798720        0.0443882081       -4.6391393924
 H        -9.8597526078        0.4543979968       -4.4729187409
 H        -9.7423249264        1.6123032606       -5.8477723988
 H        -7.5037636230        4.4356971756       -2.6040643192
 H        -7.7927275775        4.8340392069       -0.8856830632
 H       -10.2461773399        5.1522729578       -2.6777092992
 H        -8.9723839864        6.1131487481       -3.1000981789
 H       -12.7590092381        9.3880279475        0.4748364754
 H       -11.9493690311        9.8717357998        1.8646952713
 H       -11.5117898503        7.3623864292        2.5710567769
 H       -12.2565707793        7.0054949970        1.0904715278
 H       -14.5748034121        3.6923799818        4.4851838922
 H       -13.6701150115        4.9203082559        5.6382441533
 H       -12.6191344333        2.9386519023        4.0396888571
 H       -12.8536208504        2.6313867134        5.5650788099
 H        -7.8401206223        5.0754923984        5.2651159488
 H        -8.1830338099        5.4396125562        3.7262063683
 H        -6.8192435528        2.7661188805        4.7173700123
 H        -6.0266284423        4.1805936717        4.2327433495
 H        -8.3259420995       -1.3465378321        2.7365132559
 H        -7.7325431119       -0.1809899838        3.9174277054
 H        -6.5177047270       -1.1191094303        2.8785695893
 H        -4.6781644925        2.2797164949        1.0090200101
 H        -6.0193032656        1.5889152539        0.1753845552
 H        -4.9981907466        0.5856098916        1.0144493287
 H        -6.1615513538        0.8985270993        4.2304644658
 H        -5.0512058423        2.1302106650        4.0384185371
 H        -4.8478587721        0.6053681260        3.0177430542
 H        -9.7073881928        3.2173281110        7.8798742366
 H        -9.3793546033        4.8178358973        7.1031977445
 H        -8.1508397445        3.3479789193        7.0863686616
 H       -10.5753734509        1.5202316008        4.6955554459
 H       -10.5042780446        1.3858545366        6.5552002423
 H        -9.0154074164        1.3206203452        5.5996613605
 H       -13.3142251042        8.2841715386        5.0522265244
 H       -13.8296640534        6.7158941341        5.6632254458
 H       -15.1024197364        7.8698841515        5.2513255923
 H       -16.0172892814        6.2372204361        4.1849236428
 H       -15.4599630493        5.4072130112        2.9364745909
 H       -16.0946991156        7.0617478639        2.6060030016
 H       -10.4404818182        9.9461255899       -2.6845184392
 H       -10.1513717516        8.4164507290       -3.3846517889
 H        -8.9455330955        9.1661571003       -2.3317077797
 H       -12.6968449725        8.5951241815       -2.1532538174
 H       -12.8893553029        7.5233712088       -0.8680560293
 H       -12.1038777951        6.8383396039       -2.3788711450
 H        -9.5356579956        0.9224526855       -0.6407390899
 H        -9.7172783963       -0.1391449483       -2.2327095985
 H       -10.8272105479        1.3194396712       -1.7458246887
 H        -7.4962568235        0.9925485928       -1.0599301216
 H        -6.5697076300        1.9483079753       -2.2882016561
 H        -7.1498969042        0.4903780400       -2.9200167003
 H        -5.9185598026        0.3494933332       -7.8073651614
 H        -5.1649451641       -1.2975091479       -7.9723215309
 H        -5.4876667901       -0.5722180473       -6.2980926440
 H        -8.5083599113       -2.4298279892       -8.4974328359
 H        -6.8349434395       -2.5781162448       -8.9883577993
 H        -7.8383032807       -1.0648111582       -9.2501791532
 Na      -10.0037041152        4.3682777909        1.2198658902
