117

 C        -5.5261281482       -3.3442963499       -6.1865923137
 C        -6.8575109559       -2.7405237594       -6.2957325459
 O        -7.8038776743       -3.1700862026       -5.6368721002
 C        -7.2254420149       -1.5390900479       -7.2833510814
 C        -8.4095251980       -0.8173616652       -6.4903906094
 O        -9.5654576723       -0.7604159300       -6.9239657143
 C        -8.0548192592        0.2054932093       -5.3710990131
 C        -9.3068472519        0.9152109071       -4.8985203842
 C        -8.9130842381        2.0801343719       -4.0134853074
 O        -8.3908318023        3.1543909545       -4.4640029614
 C        -8.9181012331        1.8724477840       -2.4786398447
 C        -9.1835137884        3.1055590968       -1.4953309134
 O        -9.8408968905        2.9219002102       -0.4852436405
 C        -8.5744314420        4.4277120924       -1.9616767973
 C        -9.5279027668        5.7011304570       -2.1702595803
 C        -9.8420618179        6.6009856026       -0.9322650162
 O        -9.3965114354        6.4008939915        0.1996252650
 C       -10.4727618602        7.9209983691       -1.2987486341
 C       -10.5289724513        8.8678468400       -0.0222628941
 O        -9.8011978813        9.8205062966       -0.1322393673
 C       -11.7637491613        8.9503106260        1.0705542010
 C       -12.1278311365        7.7769400235        2.0038002270
 C       -13.7125853266        7.7580347468        2.3085111994
 O       -14.4895405837        8.1687365179        1.4787261706
 C       -14.1687159624        6.8639304758        3.6204823924
 C       -13.3952183709        5.4889485482        3.6484874907
 O       -12.5173420166        5.1513915978        2.8833263997
 C       -13.7390119801        4.5456869156        4.8507056919
 C       -12.4548461330        3.5518030394        5.1579260594
 C       -11.3758243460        4.3340663251        5.8194154177
 O       -11.4199961710        5.4968097452        6.2028146652
 C        -9.9737524783        3.6003242211        5.7703633743
 C        -9.4141538766        3.9445921006        4.4383865548
 O       -10.0669773431        3.6330052486        3.4403470126
 C        -8.1669524101        4.8067176953        4.1820003726
 C        -6.9547525138        3.7654921516        3.9522442772
 C        -6.9387303620        3.0651650154        2.6048138664
 O        -7.4837504336        3.5249934304        1.6162124371
 C        -6.3705479547        1.6710530629        2.5186871275
 C        -7.6104608360        0.6698313299        2.1304466456
 O        -8.3642538932        1.0896649697        1.3139913561
 C        -7.9480831654       -0.8257394940        2.7713002396
 C        -5.5273600720        1.6885709529        1.2995017311
 C        -5.5235786718        1.0540736527        3.8083885695
 C        -9.0759727189        3.9731355968        7.0100625224
 C       -10.1640674426        2.0333542769        5.8346068557
 C       -14.0080402314        7.9510858496        4.6931151637
 C       -15.6202797943        6.4590048783        3.4553191910
 C        -9.5678700800        8.7055201510       -2.3173019047
 C       -11.8125132751        7.7956875440       -1.8535340324
 C        -9.9611390855        0.6853788774       -2.1772118311
 C        -7.3580058887        1.3441643791       -2.0733736846
 C        -6.0902472073       -0.6493877139       -7.6529639096
 C        -7.8586248190       -2.1862534372       -8.4985721114
 H        -4.9503320263       -3.2914664738       -7.1061504518
 H        -5.4825951599       -4.4242952390       -6.0378077220
 H        -4.8190924044       -2.8408950154       -5.5439030285
 H        -7.1911611383        0.8332542626       -5.7224499798
 H        -7.6882507773       -0.3672286431       -4.4987129915
 H        -9.9941123727        0.3602892249       -4.3386037255
 H        -9.8227135850        1.3543008046       -5.7402729637
 H        -7.8888126334        4.3284553783       -2.7560244542
 H        -7.9155175222        4.6754344808       -1.0980248539
 H       -10.5272228339        5.3347939252       -2.5982962575
 H        -8.9896935424        6.1257762496       -3.0470724413
 H       -12.5816584080        9.1357152014        0.3462036158
 H       -11.7879746310        9.7841623144        1.7238005570
 H       -11.6726652105        7.9126823997        3.0590441036
 H       -11.8252453259        6.6685286639        1.8128002474
 H       -14.4692893297        3.9137854721        4.5475752464
 H       -13.8628386386        4.9103117688        5.8495203463
 H       -12.3164608326        2.9310325630        4.2106726999
 H       -12.8797479135        2.7274043379        5.7824940356
 H        -7.9156540662        5.5200764094        5.0568249058
 H        -8.3942849718        5.4720568027        3.3583378393
 H        -6.7674015357        3.0404396707        4.6880063209
 H        -5.9460455472        4.1822190885        3.8792137593
 H        -8.9117213802       -1.1568317228        2.4844630505
 H        -7.8683391221       -0.8786527027        3.8259301113
 H        -7.2148060638       -1.4790414254        2.3510278965
 H        -4.9739298380        2.6755725199        1.0460030937
 H        -6.1310799231        1.6371578272        0.4136392312
 H        -4.8212885765        0.8651942139        1.2502140726
 H        -6.1277042800        1.3336222087        4.6202578442
 H        -4.5758339821        1.5899681965        3.9394564072
 H        -5.3555351722        0.0800424805        3.3996446113
 H        -9.4691322005        3.7490133634        7.9372790484
 H        -9.0058996046        4.9507923668        7.0087860933
 H        -8.0517382900        3.4915244371        6.9144885621
 H       -10.3366730173        1.8166298675        4.8258358984
 H       -11.0810972927        1.7960134759        6.4102850157
 H        -9.2820641353        1.5181909464        6.2575572126
 H       -12.9762459135        8.0328336285        4.9832462466
 H       -14.5695391012        7.5435656779        5.5676992733
 H       -14.2421398482        8.9369027027        4.2827345559
 H       -15.7818670913        5.8235100006        4.3668969527
 H       -15.7201865653        5.8662092451        2.5206570698
 H       -15.9915947948        7.5359272246        3.5115897267
 H       -10.0814485856        9.6261403360       -2.6005515605
 H        -9.5308309020        8.2302885987       -3.2522309092
 H        -8.5344819651        9.0460531223       -1.9366465654
 H       -12.4165564915        8.6411576828       -1.8186092712
 H       -12.3102400387        6.9549441545       -1.3107107804
 H       -11.8022154498        7.4186249691       -2.8217076630
 H        -9.9459862949        0.6183959213       -1.1072229664
 H        -9.6443298390       -0.2345547471       -2.6215746287
 H       -10.9323779267        1.0320607297       -2.4376421330
 H        -7.2256278183        1.5961774432       -1.0535888065
 H        -6.5181536457        1.6313525532       -2.6294708713
 H        -7.3472895909        0.3023215380       -2.2351214949
 H        -6.3767626213        0.0305751259       -8.4507036525
 H        -5.2010957080       -1.1882633143       -7.9993284364
 H        -5.7795926596       -0.1308678325       -6.7450112877
 H        -8.9217939635       -2.1663431541       -8.4830066799
 H        -7.4993287027       -3.1571813289       -8.7003051326
 H        -7.5627059671       -1.5807993169       -9.4484310902
 Na      -10.1043333713        4.2415723731        1.3073958701
