117

 C        -5.3378382636       -2.8698126729       -5.9385783733
 C        -6.8445573801       -2.8957748318       -6.2496602045
 O        -7.4641488582       -3.6822012908       -5.5678858972
 C        -7.4905970757       -1.9715238362       -7.3586855406
 C        -8.6252907479       -1.1072744433       -6.7000576185
 O        -9.6003355706       -0.8337295928       -7.3817496851
 C        -8.4666486693       -0.4805450734       -5.3806797063
 C        -9.4013703733        0.7865643088       -5.2487439503
 C        -9.1390774388        1.8375313909       -4.0867417938
 O        -9.0805411086        2.9784065347       -4.2891829758
 C        -9.0041408990        1.4016179563       -2.5051762985
 C        -9.5319799160        2.5937760469       -1.5200646770
 O       -10.3832161245        2.2858512462       -0.7199765557
 C        -8.9146256915        4.0343323361       -1.4740693579
 C        -9.9513405830        5.0885886723       -1.7587939130
 C        -9.8085825791        6.4200965841       -0.8692862354
 O        -9.6727889060        6.3998728441        0.3567146292
 C       -10.0838743624        7.8861569615       -1.5194324555
 C       -10.3174084043        8.8920676605       -0.1979071609
 O        -9.4193609210        9.5948161581        0.1611334625
 C       -11.9159321956        9.0163731043        0.5293920844
 C       -12.0880531960        7.6997458660        1.2900337706
 C       -13.4878577670        7.5927579227        1.8137012895
 O       -14.4022685074        7.7561301365        1.0143967195
 C       -13.7761734389        7.1723474708        3.3895980924
 C       -13.2172195606        5.7852327832        3.7568197516
 O       -12.3333151173        5.3345203868        2.9999667336
 C       -13.8121666009        5.1171330835        5.0522292156
 C       -12.6483529731        4.1976376039        5.6131184597
 C       -11.4837802331        4.9972290405        6.1197708890
 O       -11.4948446011        6.1193215155        6.5891082940
 C       -10.0484970762        4.2419621953        6.0834360782
 C        -9.5441471656        4.2482667406        4.4938285162
 O       -10.1414555872        3.5595054514        3.6278588357
 C        -8.3378693587        5.0184366425        3.9730338639
 C        -7.2410964630        3.9056077509        4.1033487946
 C        -6.9758429312        3.2240575417        2.6887352449
 O        -7.0544684043        3.7120185137        1.6051870217
 C        -6.5233683536        1.7214980895        2.8091462305
 C        -7.7843950068        0.9865936787        2.1130983879
 O        -8.4141310059        1.3429461161        1.1167455125
 C        -8.0503239314       -0.3527011859        2.6073077928
 C        -5.3691161104        1.5066090362        1.8052471839
 C        -6.0809938751        1.1342477040        4.2283914816
 C        -9.0062076269        5.0577844838        6.8527379117
 C       -10.0482293481        2.7497678495        6.4875983454
 C       -13.0409690093        8.3739080588        4.2356564100
 C       -15.3747813111        7.2816356568        3.8959437725
 C        -8.7724778572        8.2772565812       -2.2783356949
 C       -11.2530017852        7.8423911447       -2.5229196986
 C        -9.8607471508        0.2260361243       -2.0856252592
 C        -7.5447649754        1.1063278608       -2.1488632614
 C        -6.5846802443       -0.8325796440       -8.2526428507
 C        -8.1690205699       -3.0007702939       -8.3952492572
 H        -4.8265941883       -1.8948551038       -5.9515735629
 H        -4.6594491625       -3.3398177418       -6.6725939069
 H        -5.1700360226       -3.4409508352       -5.0139767417
 H        -7.3644911262       -0.2448943212       -5.1458235220
 H        -8.8355097879       -1.3149045237       -4.8533086774
 H       -10.3771156689        0.4286788641       -4.8848636641
 H        -9.6056085168        1.2113516528       -6.2049482282
 H        -7.9758773194        4.1856844827       -2.0844213603
 H        -8.5605704016        4.2571701218       -0.5303378439
 H       -10.9499224133        4.6221781271       -1.5734647306
 H        -9.7535115466        5.3435969610       -2.8154876427
 H       -12.6808085931        8.9950905519       -0.2401108188
 H       -11.8450427549        9.8267540512        1.2643027462
 H       -11.3703394594        7.6728000110        2.2051747148
 H       -11.7724443620        6.8026752764        0.6305303184
 H       -14.7208290474        4.5441712112        4.7556616826
 H       -13.9907320572        5.9185759939        5.7800281063
 H       -12.6667157796        3.5425115048        4.7138380202
 H       -12.8507028294        3.3653074863        6.3821343004
 H        -7.8621343790        5.8416519247        4.5547845321
 H        -8.4987457748        5.2646563156        2.8614972308
 H        -7.4467821249        3.0985139969        4.7414040301
 H        -6.3343579923        4.3121764530        4.3871827283
 H        -8.4549017410       -1.0054912865        1.8970361681
 H        -8.8779216875       -0.1081543963        3.2585816191
 H        -7.2464889563       -0.7200347433        3.1776654584
 H        -4.4885669644        2.0055092501        2.0064815599
 H        -5.6258434416        1.9677617795        0.8144602542
 H        -5.0729793149        0.4359954371        1.7184515245
 H        -7.0239549442        0.7386037903        4.6366992506
 H        -5.5718912448        1.9998493828        4.6943801051
 H        -5.3567441779        0.3376493879        3.9808674894
 H        -9.3054415544        5.1821820044        7.9292090560
 H        -8.7059290334        6.0426126890        6.3990942038
 H        -8.1733432472        4.5204660628        6.8968323679
 H       -10.8274364236        2.0846618130        6.0211073614
 H       -10.3325144613        2.8041241873        7.5162961544
 H        -9.0237577175        2.3710578619        6.4342743162
 H       -11.9100023990        8.2942337840        4.0461454658
 H       -13.1590999694        8.1925860771        5.2987728866
 H       -13.2665679167        9.4238088777        3.9636836383
 H       -15.3389785025        7.2961024868        5.0305039727
 H       -15.8455765697        6.4038431357        3.3445117279
 H       -15.6382760154        8.2497468843        3.4698211025
 H        -9.2032385889        9.0902337213       -2.9355313845
 H        -8.4507822430        7.4755993849       -3.0218775194
 H        -8.0099404299        8.7362662243       -1.7425419120
 H       -11.4138522607        8.6985573367       -3.1404621304
 H       -12.0501115888        7.4253516918       -2.1068182200
 H       -10.9562723693        7.1479344091       -3.3052961352
 H        -9.3598644941       -0.1093618568       -1.2161941276
 H        -9.8551801072       -0.6154858183       -2.6930360772
 H       -10.8563662087        0.6158659485       -1.8440404614
 H        -7.4369394683        0.7022369295       -1.1737609400
 H        -7.0185784497        2.0412695031       -2.1292747517
 H        -7.0052063243        0.4254863005       -2.8226767113
 H        -7.1786381885       -0.6844385265       -9.1835514663
 H        -5.5382877183       -1.1241717099       -8.4916814384
 H        -6.5039673023        0.1459313203       -7.7254963627
 H        -8.4183805173       -3.9233135433       -7.8500777111
 H        -7.7037052735       -3.1160485504       -9.4064326506
 H        -9.1177048984       -2.6737656607       -8.6447495414
 Na       -9.4097888835        3.6629010709        1.2503178083
