117

 C        -5.2700638891       -2.3596754552       -5.8191461268
 C        -6.7864339519       -2.6201181569       -6.0822468049
 O        -7.4221567051       -3.2554529318       -5.2577532648
 C        -7.6771734116       -2.1615943848       -7.3124478783
 C        -8.8533233203       -1.1436821226       -6.7429691420
 O        -9.8207846330       -0.9671876759       -7.4186026270
 C        -8.5791829278       -0.2801333797       -5.5292596558
 C        -9.9768455054        0.2964669090       -5.0895505443
 C        -9.5807585995        1.3914088509       -4.1304046543
 O        -9.5646020748        2.5119892640       -4.5396688098
 C        -9.2354583974        1.1630027888       -2.5049662530
 C        -9.4245399654        2.4003447120       -1.5258925181
 O       -10.2554473810        2.2624067818       -0.6594822977
 C        -8.8060731820        3.7843016240       -1.9195699116
 C        -9.9555845049        4.8540737790       -2.1486806363
 C        -9.8591964194        5.8277329049       -0.9655982374
 O        -9.6374325351        5.3251257825        0.1533400014
 C        -9.6907959928        7.3158830585       -1.3082021909
 C       -10.1018727250        8.3528663969       -0.0891707994
 O        -9.2546466572        9.0281357584        0.4110572890
 C       -11.6495454517        8.4879995926        0.3146054848
 C       -12.3179128063        7.1596299447        0.6646969514
 C       -13.5303574825        7.5565027657        1.6083809317
 O       -14.6250715275        7.3904680109        1.1600016780
 C       -13.5412662109        7.7972331209        3.1902549010
 C       -12.9684838505        6.3714468702        3.6861521918
 O       -11.9239260059        5.9502154967        3.1616758327
 C       -13.7495513946        5.7937652687        4.8199393152
 C       -12.7989940168        4.6697539897        5.4801994593
 C       -11.4834259931        5.3568988293        5.9090267466
 O       -11.5286566462        6.4689150676        6.3866546281
 C       -10.0405577161        4.6218521726        5.9448818924
 C        -9.4890281601        4.4910177564        4.5359889881
 O       -10.0513660220        3.8224597573        3.6351426770
 C        -8.1413941398        5.2791357028        4.0541921269
 C        -6.8924674203        4.2752701776        4.1263525576
 C        -6.9331532281        3.3499138258        2.8296905914
 O        -7.1737746848        3.8027559658        1.7707340278
 C        -6.6741134266        1.8082821869        3.0451483362
 C        -7.8435465281        1.0811216611        2.3385817054
 O        -8.5486219450        1.6482501520        1.5195366810
 C        -7.7606717077       -0.4190717300        2.5790195898
 C        -5.4861958971        1.4408641347        2.0642254356
 C        -6.2703781504        1.4068501634        4.4630571856
 C        -9.1259159991        5.6259407644        6.7540825995
 C       -10.0406210733        3.2696294809        6.7161048626
 C       -12.5153220581        8.7235180056        3.7518241198
 C       -14.9582709555        8.0922077179        3.6615495555
 C        -8.2098603140        7.3282671395       -1.9029456336
 C       -10.7552419869        7.5826292492       -2.5119882564
 C        -9.9773279954        0.0015285058       -1.8528435533
 C        -7.5732958522        0.9475734538       -2.4172014389
 C        -7.0388535640       -1.2987245754       -8.2523559413
 C        -8.3863058579       -3.2127726548       -8.0959607684
 H        -5.0774540837       -1.9548051203       -4.8201746136
 H        -4.7998509527       -1.6580992507       -6.4008059837
 H        -4.6814515622       -3.1992378178       -5.9787286837
 H        -8.0940151994        0.6501237300       -5.9829271934
 H        -8.0052644741       -0.6904260418       -4.7237328442
 H       -10.6423459453       -0.5498806752       -4.8767174479
 H       -10.3428417663        0.8885512279       -5.8938703351
 H        -8.2442448425        3.6493619972       -2.9009538268
 H        -8.1085427576        4.2043512808       -1.1916480038
 H       -11.0359773306        4.3691038591       -2.1219047844
 H        -9.7416128635        5.3342266340       -3.1400292606
 H       -12.1330523841        8.8146749421       -0.5596835469
 H       -11.6762326446        9.2335650183        1.0666089234
 H       -11.5262288292        6.5325608157        1.1558799568
 H       -12.7719436369        6.7433187515       -0.2857302930
 H       -14.6312933402        5.5329218858        4.3508169071
 H       -13.9958769281        6.5630342024        5.6304819638
 H       -12.5008752649        3.8705405766        4.7761151280
 H       -13.4527192695        4.0606792538        6.2431817211
 H        -8.0053009726        6.1872604553        4.5755796776
 H        -8.2937506303        5.4130722839        2.9455989613
 H        -7.0630090521        3.6313374946        4.9416025331
 H        -5.9004789691        4.5962830196        4.1168657859
 H        -8.3891719332       -1.0429570579        1.9771559868
 H        -8.1600379487       -0.4586858302        3.5445324124
 H        -6.6992236597       -0.8148499786        2.5696920960
 H        -4.5768705448        1.7890366421        2.4178192078
 H        -5.6795559387        1.9594864034        1.1170363690
 H        -5.3171574066        0.4125110969        1.7915667889
 H        -7.2588849826        1.5113415684        4.9878451236
 H        -5.4543306780        2.0546866222        4.6029375774
 H        -5.9696696172        0.4071543158        4.5730087584
 H        -9.3629503966        5.7823643505        7.7883758090
 H        -9.0235158562        6.4937309511        6.2552243135
 H        -8.0918502102        5.2643209973        6.8497420858
 H       -10.6381024202        2.4848161860        6.1695510713
 H       -10.4309175713        3.4032407831        7.7198984398
 H        -9.0410550515        2.8409302376        6.7173510804
 H       -11.5233926003        8.6131029845        3.2914537003
 H       -12.3916963368        8.5154584783        4.8071396566
 H       -12.9204407717        9.7020833392        3.7804880864
 H       -14.9493006788        8.3187353109        4.7188983348
 H       -15.5869773341        7.3559962698        3.2179165227
 H       -15.1384183145        8.9682552556        3.0575481119
 H        -7.9863039644        8.3576115431       -2.1486383779
 H        -7.9364536686        6.4742203561       -2.6076572720
 H        -7.6761060648        7.0544137625       -1.0348868640
 H       -10.7238282255        8.6042425232       -2.8487827196
 H       -11.7638023526        7.4173243794       -2.2321678888
 H       -10.5319919574        6.9979968984       -3.4459302629
 H        -9.7261155096       -0.1224026873       -0.8636509490
 H        -9.5513134246       -0.8955280361       -2.3274104361
 H       -11.1386378902        0.0348359519       -2.0040664791
 H        -6.8899965168        1.3299221025       -1.6191567369
 H        -7.1544754327        1.4251342712       -3.3619293230
 H        -7.3249653464       -0.0953547005       -2.3116064468
 H        -7.7252339103       -0.7230273751       -8.8849771046
 H        -6.4175507103       -1.8879609468       -8.9346901166
 H        -6.4520388837       -0.5412672235       -7.7027872214
 H        -9.3174239018       -3.5476603691       -7.5653977403
 H        -7.7585919787       -4.0843327228       -8.3930378061
 H        -8.6334328380       -2.8465195208       -9.0186462246
 Na       -9.8450180678        3.6760822209        1.4360185186
