117

 C        -5.3805357738       -2.3771092194       -5.8471282603
 C        -6.8077020446       -2.6520520841       -6.0209341466
 O        -7.3564130967       -3.2625432768       -5.1024629056
 C        -7.7350725704       -2.1052777635       -7.3885520450
 C        -8.9107458833       -1.1610100946       -6.9033424513
 O        -9.8876470258       -1.1998247150       -7.5972842276
 C        -8.7582236320       -0.1956439533       -5.7301187496
 C       -10.0700279888        0.1833013171       -4.8912547587
 C        -9.8244862354        1.3813006545       -3.9828812236
 O        -9.6296895309        2.5395300015       -4.4575840324
 C        -9.2908801681        1.0966096075       -2.5048008131
 C        -9.5178228388        2.3859886158       -1.6391499165
 O       -10.2464942435        2.4558973208       -0.6325649655
 C        -8.6666910369        3.5335722908       -2.0412475798
 C        -9.7846590865        4.6008560487       -2.0385172936
 C        -9.7900668060        5.7647276841       -0.9304443258
 O        -9.8629573637        5.5733888202        0.2694927397
 C        -9.7569728352        7.2220137085       -1.3224425894
 C       -10.0737482219        8.1969571184       -0.1523226563
 O        -9.1856127369        8.7560948376        0.5266791472
 C       -11.4962756444        8.4563182942        0.2857381484
 C       -12.4200233356        7.2102920163        0.6078729565
 C       -13.6302497993        7.4234765256        1.3931786384
 O       -14.7576796337        7.4335549325        0.9300869662
 C       -13.4288175997        7.8472648099        2.9762122835
 C       -12.9324657756        6.4222981211        3.6826909799
 O       -11.8098594880        6.1034838336        3.4186912498
 C       -13.6832082140        5.7941624949        4.8913743349
 C       -12.7726538440        4.7135034586        5.5324728851
 C       -11.4480424086        5.4699449201        5.9100254568
 O       -11.5909572699        6.5846530582        6.3134736066
 C        -9.9479110850        4.7712621379        5.9084188662
 C        -9.4935263622        4.5728831498        4.5040105969
 O       -10.0607282910        3.7970128932        3.7704473476
 C        -8.1377800592        5.2452111915        4.0291489112
 C        -6.9634141448        4.3843647613        4.0140273920
 C        -6.9682267144        3.3893199262        2.8656920807
 O        -7.3993619940        3.8149038262        1.7789399588
 C        -6.5148216901        1.9365888284        3.0113717404
 C        -7.7357221881        1.1001102165        2.4054258739
 O        -8.6600327160        1.5828816349        1.8010144713
 C        -7.7808617995       -0.4399331639        2.6389893614
 C        -5.2879456270        1.4107022032        2.0777385683
 C        -6.3600993650        1.4259835781        4.5553756616
 C        -9.1167926015        5.6778005771        6.8566497866
 C       -10.0657733049        3.4250144012        6.5855582310
 C       -12.1884113219        8.7744044911        3.5176763047
 C       -14.8256950930        8.2601129632        3.5500804127
 C        -8.2494370450        7.3020932188       -1.7032701707
 C       -10.5829758829        7.5258231175       -2.6068941037
 C        -9.8906177168       -0.1213169467       -1.8729785526
 C        -7.7666887176        0.9375264597       -2.5261505500
 C        -6.9366969516       -1.1292306122       -8.4506787205
 C        -8.3483340677       -3.4932257980       -7.9068651926
 H        -5.0584411714       -2.0770549746       -4.8320168668
 H        -5.0590440563       -1.5426735127       -6.4892232752
 H        -4.7081571555       -3.1397844835       -6.2066292805
 H        -8.3676611770        0.7348316570       -6.0524671683
 H        -8.0783780865       -0.6663397769       -4.9690371590
 H       -10.1931093738       -0.7030388644       -4.2902319683
 H       -10.9544698938        0.3686263436       -5.4857752595
 H        -8.1996302854        3.4744462089       -2.9569751256
 H        -7.9365366136        3.6384311258       -1.2060729321
 H       -10.7700349775        4.1498939118       -2.0419413576
 H        -9.6231168583        5.0592453094       -2.9849779228
 H       -11.9730193849        9.0283694219       -0.5825840143
 H       -11.3661399263        9.1906345846        1.1336590666
 H       -11.7157126487        6.6855518086        1.3192369922
 H       -12.6291752453        6.6839904391       -0.3921264899
 H       -14.7174850171        5.4235787484        4.5224083031
 H       -13.8875197966        6.6090558499        5.7320802729
 H       -12.6403998355        3.7128162669        5.0193249747
 H       -13.3120674350        4.4031765661        6.5190638402
 H        -7.8417215710        6.0112394890        4.8014174306
 H        -8.1527172265        5.7162082655        2.9912545942
 H        -6.8257662213        3.8938502103        4.9350091472
 H        -6.0734779481        4.9127410733        3.7204390777
 H        -8.6476670384       -0.8445443544        2.1764315839
 H        -7.9336859601       -0.5462353125        3.6659548063
 H        -6.9216027390       -0.9926347206        2.2902479716
 H        -4.2772267155        1.5725888426        2.5908114554
 H        -5.2754302621        1.8366723497        1.0933815862
 H        -5.3434597798        0.3654655666        1.8565776372
 H        -7.4307465605        1.2296617257        4.7431111125
 H        -5.8019910493        2.2376615039        5.0254989818
 H        -5.7929708395        0.4927618348        4.6511066019
 H        -9.5812107401        5.9043464108        7.8001757287
 H        -8.6419942867        6.6036046050        6.5402126351
 H        -8.2402348884        5.0003281292        7.2566662513
 H       -10.9102708577        2.8683295727        6.1711128515
 H       -10.2668099113        3.6451886215        7.6698292514
 H        -9.2382459151        2.7303225741        6.4854009015
 H       -11.2364036383        8.3250718706        3.4790919513
 H       -12.3951374979        9.0190502912        4.6049032144
 H       -12.3128241979        9.7404495930        3.0630293893
 H       -14.7675251401        8.5522528617        4.6136768795
 H       -15.5663109189        7.5643379430        3.1142522522
 H       -14.9561581264        9.1698657510        2.8463779700
 H        -7.9595866625        8.2965110134       -1.4698929896
 H        -7.9878977126        6.8503917711       -2.6514938036
 H        -7.7909126217        6.5671042411       -0.9687824017
 H       -10.5065947512        8.5351565437       -2.8238945285
 H       -11.6901384432        7.3897290767       -2.5827530958
 H       -10.1812739333        6.9633982884       -3.3760876733
 H        -9.3696968347       -0.4295587840       -0.9785658434
 H        -9.9239979073       -0.9694053239       -2.5442492472
 H       -10.8597589155        0.1260755514       -1.6190594140
 H        -7.2566904246        1.0567731122       -1.5608064400
 H        -7.2838649952        1.6492902886       -3.1780119740
 H        -7.4596908275       -0.0612224769       -2.7268381556
 H        -7.5554305052       -1.0218398568       -9.3503467099
 H        -6.0982956944       -1.7490637992       -8.8369917704
 H        -6.6973423795       -0.0667694102       -8.1535401699
 H        -9.2508461506       -3.7119618485       -7.3376433108
 H        -7.7243267033       -4.3435006234       -7.9551557217
 H        -8.6351683806       -3.3509449907       -8.9895106686
 Na       -9.8121358497        3.7118032477        1.4165023583
