117

 C        -5.4101858812       -2.2467877155       -6.0623637938
 C        -6.9308663067       -2.4857221746       -6.0094813995
 O        -7.4615093094       -3.1704726239       -5.1743427055
 C        -7.7487462255       -2.1299599056       -7.2470641329
 C        -9.0650407931       -1.2657824569       -7.0196568594
 O       -10.0629408490       -1.3817765573       -7.7217751764
 C        -8.9097799463       -0.1623409733       -5.8608456687
 C       -10.0318286338        0.0527072443       -4.8796529718
 C        -9.7686319823        1.2925611626       -3.9360725501
 O        -9.8349393773        2.4382839145       -4.3619189222
 C        -9.3135474979        0.9444032224       -2.4657530533
 C        -9.4840830175        2.3278295201       -1.5533151126
 O       -10.2785845076        2.3272771666       -0.6117531448
 C        -8.7067897055        3.6284373397       -1.9179324928
 C        -9.6793277174        4.7803437888       -1.9753132692
 C        -9.8754004214        5.8014073282       -0.8528557993
 O       -10.0378559386        5.6032339909        0.3259124521
 C        -9.6668111310        7.1838767970       -1.4017242709
 C       -10.0424532293        8.0625665784       -0.1625789801
 O        -9.0882825848        8.3650332373        0.5083359124
 C       -11.4709791587        8.4189103040        0.1619824560
 C       -12.3685694165        7.2048076228        0.5219681543
 C       -13.5994139594        7.5863449900        1.3208972191
 O       -14.7234967433        7.4639132717        0.8480502142
 C       -13.3882897754        7.8588681726        2.8334610976
 C       -12.8330086740        6.5161800389        3.7827001155
 O       -11.7271011913        6.0899640983        3.6031596479
 C       -13.6278663843        5.7470726226        4.8632399607
 C       -12.6912146170        4.8297925094        5.5245724208
 C       -11.4321397178        5.6220126345        6.0166291335
 O       -11.5229148123        6.8047194339        6.2882906248
 C       -10.0277389914        4.8454809880        6.0606774823
 C        -9.4715353843        4.6520804248        4.5292804913
 O       -10.0460284139        3.8375824568        3.8605044920
 C        -8.2452343589        5.4202718888        3.9495734962
 C        -6.9090516548        4.5445329929        4.0342835434
 C        -6.8733763995        3.4088297629        2.7810598216
 O        -7.4765594737        3.7253149312        1.7266987674
 C        -6.5351700704        1.8764005426        2.9198804662
 C        -7.7988579201        0.9598173750        2.4761842436
 O        -8.7885703289        1.4932869782        2.0618364912
 C        -7.8503692869       -0.5495675355        2.7345181223
 C        -5.1651647799        1.6350302245        2.2846789355
 C        -6.3653217901        1.4720895269        4.4483527458
 C        -9.1001681124        5.7337300429        6.9085735355
 C       -10.2130380668        3.4362958992        6.5226205028
 C       -12.2541565377        8.8116369721        3.0674310342
 C       -14.6622660353        8.4621149941        3.4986572372
 C        -8.0682961290        7.4666563800       -1.5695287256
 C       -10.4506675814        7.6299506976       -2.7124559199
 C        -9.9522080865       -0.3560414613       -1.7446590171
 C        -7.8633221997        0.7909618221       -2.7006622400
 C        -6.8761063685       -1.3947533336       -8.2916936997
 C        -8.1389230937       -3.4843667454       -7.7284094967
 H        -4.9244272289       -2.2895898278       -5.0852866123
 H        -4.9428988996       -1.3260066871       -6.5922814537
 H        -4.9081903300       -3.0785062528       -6.6931020069
 H        -8.8834440400        0.8140368659       -6.2597957816
 H        -7.9809227101       -0.3707596063       -5.2906103772
 H       -10.1928459608       -0.8134661427       -4.2641241423
 H       -10.9456754586        0.3484373407       -5.4506720785
 H        -8.2325621689        3.5886670242       -2.8713855150
 H        -7.9905295844        3.6579836709       -1.1142204969
 H       -10.5837105192        4.4107116656       -2.2226577675
 H        -9.3421791135        5.2966523813       -2.8504146759
 H       -12.0259988800        8.9587942180       -0.7240434912
 H       -11.3547086004        9.2128322840        0.9913074718
 H       -11.7487324915        6.5907439485        1.1753261795
 H       -12.6759619680        6.7919247454       -0.4364014233
 H       -14.5042547063        5.0865519040        4.3463098384
 H       -14.1046791271        6.5020049549        5.4937496368
 H       -12.3914686136        3.9469412747        4.8829353760
 H       -13.0625083841        4.3334895997        6.3700775933
 H        -8.0433423280        6.3255256569        4.6421459299
 H        -8.3060299334        5.7289929264        2.9035995046
 H        -6.8643246797        3.9300394909        4.9646624837
 H        -6.0362429893        5.2634498079        3.9440795009
 H        -8.7697347857       -0.9607728356        2.3445653013
 H        -7.6997198226       -0.9178851293        3.7944475146
 H        -7.1126437907       -0.8776186002        2.1152586996
 H        -4.3675274475        2.0363614551        2.9824008336
 H        -5.0696302509        2.0494389291        1.2670525596
 H        -4.8924361790        0.5863969752        2.0344391546
 H        -7.3502516316        1.3475054460        4.8155954068
 H        -5.6259631032        2.2476475162        4.8103249597
 H        -5.8077799540        0.4813581522        4.4082602850
 H        -9.5414190666        6.0585723563        7.9204378092
 H        -8.6879175019        6.7910943549        6.4946296967
 H        -8.2365594155        5.1971427716        7.2511686537
 H       -10.9635536578        2.8982973083        5.9966091836
 H       -10.3400742317        3.3895953965        7.6184094374
 H        -9.2938700463        2.8248733821        6.3190609155
 H       -11.2863925062        8.3068063711        2.9935053650
 H       -12.2409154278        9.3164167538        4.0281421033
 H       -12.4651549757        9.6381214548        2.3420788340
 H       -14.3616642471        8.7569658268        4.5480567550
 H       -15.5643256775        7.8219591672        3.2509305251
 H       -14.7759469514        9.3700206941        2.8882952735
 H        -7.9407674322        8.4877953829       -1.1719880351
 H        -7.8937627184        7.3495958723       -2.5730099028
 H        -7.4287291998        6.6734521044       -1.1325373803
 H       -10.5482242347        8.7346562000       -2.7445172220
 H       -11.4944579595        7.4208060076       -2.5194076663
 H       -10.2090506473        7.1331834258       -3.6057327805
 H        -9.3378433933       -0.5639680207       -0.8218015821
 H       -10.1713666956       -1.2199424806       -2.3420235602
 H       -10.8741810017       -0.0327748807       -1.3362294672
 H        -7.3985986631        0.5204046791       -1.8184882540
 H        -7.3472242940        1.6159916637       -3.0476884366
 H        -7.5875109574       -0.0887956578       -3.3166849795
 H        -7.4378205268       -1.7076333655       -9.1967419475
 H        -5.9061206659       -1.8486965091       -8.5321525330
 H        -6.9240750120       -0.3039212083       -8.3364625038
 H        -8.8602319662       -3.9201539941       -7.0819360288
 H        -7.3646625215       -4.2338554924       -7.8760999822
 H        -8.5507290711       -3.2929837799       -8.7786219428
 Na       -9.7327260804        3.6222208900        1.4143842710
