117

 C        -5.6337508370       -1.9586835183       -6.0837111974
 C        -7.1334327563       -2.0038086993       -5.9022773604
 O        -7.6320487710       -2.0992081190       -4.7887316972
 C        -8.0785299052       -2.1038904544       -7.1709980275
 C        -9.4741509198       -1.4213763203       -6.9445397704
 O       -10.5195457231       -2.0410972954       -7.1097210846
 C        -9.4210093296       -0.1422207082       -6.2462361123
 C        -9.8943997289       -0.4950474101       -4.7924461179
 C       -10.0166076960        0.7016533550       -3.8706787292
 O       -10.6932017970        1.6845518126       -4.1307867881
 C        -9.4195061349        0.4915373270       -2.3442904346
 C        -9.3883354475        1.7857020557       -1.4903531147
 O        -9.9024946238        1.8228405258       -0.4169840628
 C        -8.5960754745        3.0521483128       -2.0757418734
 C        -9.0104961764        4.5008722826       -2.3250358723
 C        -9.3969048216        5.3681618093       -1.1796969543
 O        -9.5609160964        5.1212486105        0.0363379444
 C        -9.2830938807        6.8370244898       -1.5439314371
 C        -9.9337091316        7.5716277784       -0.2935055160
 O        -9.3040077911        7.8385280466        0.7366682424
 C       -11.3070316052        8.2571101322       -0.3844635848
 C       -12.3856877434        7.3500422284        0.2852486093
 C       -13.3971472179        7.9302691876        1.2741062591
 O       -14.5264187838        7.8133745048        0.8793543759
 C       -13.0572685598        8.3930434901        2.7613092808
 C       -12.4473240247        7.2362009276        3.5233552234
 O       -11.3558480198        6.7886558516        3.1288565134
 C       -13.3913429596        6.5235092855        4.6033483194
 C       -12.5611722133        5.3572921597        5.2206453360
 C       -11.1721108642        6.0007251646        5.8002491791
 O       -11.2168027795        7.0836122682        6.2989100695
 C        -9.9221054839        5.0391072457        5.8385759974
 C        -9.6705186257        4.6660855928        4.3560216772
 O       -10.4112423609        3.8324419961        3.8247453354
 C        -8.5732984603        5.5766013694        3.7138767424
 C        -7.2392938224        4.8666692443        3.8227195318
 C        -7.3394654659        3.6917169601        2.8341532908
 O        -7.8417686921        3.6658647382        1.7489351886
 C        -6.6849564466        2.2018995254        3.3420813559
 C        -7.7423147456        0.9846715105        2.9343452907
 O        -8.9225768359        1.1909371188        2.7304187715
 C        -7.3278660409       -0.5423036112        3.0835093504
 C        -5.2461153846        1.9276430466        2.6474358301
 C        -6.3971653807        2.0033168742        4.8704922137
 C        -8.8789294682        5.7096024670        6.7325996087
 C       -10.3748370905        3.7403944573        6.5740224363
 C       -12.1025715535        9.7671209761        2.8280941779
 C       -14.5373232550        8.8058761885        3.3486852738
 C        -7.6371253306        7.2195924099       -1.5000259498
 C        -9.8218484285        7.2234450717       -3.0219263078
 C       -10.3543189380       -0.5086543411       -1.7939218514
 C        -7.8647319981        0.0451040435       -2.3953876121
 C        -7.3512882771       -1.4390389064       -8.4364890741
 C        -8.1182663967       -3.6415848395       -7.3524500015
 H        -4.9455188162       -2.6198557058       -5.4073601110
 H        -5.2685715797       -0.9455941711       -6.2689864231
 H        -5.4009399048       -2.2887729175       -7.1212768778
 H       -10.1042753523        0.5702045685       -6.8126948009
 H        -8.4870484312        0.3156283333       -6.2917721730
 H        -9.3763198794       -1.4016398833       -4.4091332949
 H       -10.9346146085       -0.7244663234       -5.0071077930
 H        -8.3354552631        2.5689874172       -3.0428868026
 H        -7.7190642350        3.1909067093       -1.5373072584
 H        -9.8154590741        4.6288547392       -3.0709666036
 H        -8.2109198178        4.9773761336       -2.7526837827
 H       -11.6188268522        8.6593511161       -1.3692954244
 H       -11.3224782607        9.1986117137        0.2612535002
 H       -11.8274340721        6.5624438906        0.8457718637
 H       -12.9212443720        6.8687287670       -0.5396158005
 H       -14.2981585034        6.4290442680        4.1819825468
 H       -13.6141565437        7.2695174039        5.4172578692
 H       -12.1144590113        4.6772490406        4.6147161904
 H       -13.1156838328        4.8502603263        5.9682216594
 H        -8.6705143638        6.5293741088        4.1822770552
 H        -8.7996931548        5.8380505695        2.6392717566
 H        -7.0592609715        4.5315293411        4.8735829433
 H        -6.3214722411        5.4968676688        3.5116369505
 H        -8.1995287861       -1.0736188165        3.3727682340
 H        -6.5878118248       -0.7001630996        3.7760221427
 H        -7.0412608269       -0.9547182960        2.0651211003
 H        -4.5937300694        2.7480316480        2.8868406634
 H        -5.2117754520        1.8840806956        1.5007154866
 H        -4.7487380978        0.9824966461        3.0256663811
 H        -7.3550849371        2.4050866137        5.4051659697
 H        -5.6420587518        2.7155800964        5.0886805132
 H        -6.1345970552        0.9694620214        4.8848749923
 H        -9.3360525753        6.0930908032        7.6168063392
 H        -8.3641932263        6.5801531091        6.3657872114
 H        -7.9375826923        4.9932388381        6.9558541619
 H       -11.1663930859        3.2431597699        5.9651422633
 H       -10.7339346798        3.8863193321        7.5554944151
 H        -9.5748580085        3.0315501359        6.7721457143
 H       -11.1027443830        9.6938914712        2.2842578913
 H       -11.9973776673       10.0859876990        3.8633184014
 H       -12.6772407083       10.5060518565        2.2376044802
 H       -14.4844864318        8.9884782262        4.4623428297
 H       -15.2741420194        7.9765904525        3.1293502620
 H       -14.8447796475        9.7054946066        2.7181969254
 H        -7.5115867539        8.2541771874       -1.7964694911
 H        -6.9728327945        6.4203791193       -1.9939258549
 H        -7.4735382546        7.2479653451       -0.4830135400
 H        -9.7496122740        8.2853552617       -3.1198494442
 H       -10.8516506199        7.0323897076       -3.2617268854
 H        -9.1823000470        6.7683619289       -3.8014008077
 H       -10.3150264222       -0.5544850692       -0.7518652516
 H       -10.0870507313       -1.5121906532       -2.2508898109
 H       -11.3762389797       -0.3494598980       -2.2054451971
 H        -7.2017420395        0.4451945454       -1.6858585089
 H        -7.5228005302        0.3870956987       -3.3319274663
 H        -7.6791485645       -0.9276720569       -2.5944352356
 H        -8.1063088907       -0.9733224508       -9.1207568176
 H        -6.8093404946       -2.2460798964       -8.9609534324
 H        -6.6425657233       -0.6386954674       -8.1442988563
 H        -8.5566867664       -4.1885637688       -6.4682920356
 H        -7.0253100253       -3.9015644121       -7.2429458490
 H        -8.4962973575       -4.0228661701       -8.2313816966
 Na       -9.9473040542        3.1920671496        1.5017028618
