117

 C        -5.9184264461       -1.5433938313       -7.4779710474
 C        -6.9583028829       -1.9551105637       -6.3724576828
 O        -6.6790683626       -1.9736607897       -5.2164748774
 C        -8.4203099466       -2.1758048546       -7.0617954254
 C        -9.5632421871       -2.1325012044       -5.8861582688
 O       -10.4318911172       -3.0122042557       -5.6979345822
 C        -9.4881041444       -0.7300729654       -5.2696835479
 C       -10.8839402503       -0.4646595679       -4.5208461459
 C       -10.7290841194        0.5660496053       -3.2443371479
 O       -10.8276920028        1.7637222560       -3.4033907335
 C       -10.2479557513        0.0319542046       -1.8873655281
 C        -9.8632061568        1.2544467221       -0.9021461886
 O       -10.4828392914        1.4297326735        0.1374181363
 C        -8.5950264195        2.0908908180       -1.1824835095
 C        -8.7904828886        3.3938976095       -2.0872552272
 C        -9.0550120861        4.5966630668       -1.2521767845
 O        -9.6129680193        4.5705511507       -0.1254097343
 C        -8.8885789665        6.0054605488       -1.7924482517
 C        -9.7591606894        6.8710689019       -0.7296355620
 O        -9.1954892520        7.4891815264        0.1624478981
 C       -11.2727067211        6.9766862544       -0.5647603520
 C       -11.7409565957        7.2547039566        0.8363377315
 C       -12.7839250987        8.3741138654        0.9432620808
 O       -13.4794908456        8.7278155207        0.0223886506
 C       -12.6836434998        9.3405023785        2.2480165881
 C       -12.1204948783        8.3563920176        3.3745681802
 O       -11.0343602966        7.8360559934        3.4284934309
 C       -13.2409247053        7.8205172346        4.2488239754
 C       -12.7791050605        6.4170495460        4.9471519180
 C       -11.3246758321        6.4298913503        5.5366323062
 O       -11.0567742967        7.3940380400        6.2742033975
 C       -10.2856407635        5.1822617548        5.3515555673
 C        -9.8338460349        4.9670065485        3.8496850716
 O       -10.2050285668        3.9068097703        3.3482238687
 C        -8.8070434789        5.8424805336        3.1133510936
 C        -7.2590406581        5.3096899537        3.1648052619
 C        -7.0845263890        3.8221769589        2.7826837624
 O        -7.2216949176        3.4922419431        1.6389328832
 C        -6.5567334594        2.6063192687        3.8208881269
 C        -7.3554111680        1.2426619148        3.4957314609
 O        -7.9485119001        1.2028653595        2.4305608872
 C        -7.2707949389        0.1055169306        4.5207956650
 C        -5.0592281969        2.2030400225        3.6322076736
 C        -6.9248113027        3.2022215510        5.2515828346
 C        -9.1476862041        5.4850248907        6.3079038221
 C       -10.9977930053        3.9412803952        5.9160243041
 C       -11.5466886590       10.2903125672        1.8942536193
 C       -14.0319191226       10.2082140007        2.4599164550
 C        -7.3231030229        6.2874808283       -1.5863123464
 C        -9.4062853557        6.1048509037       -3.4189296560
 C       -11.5204542785       -0.6576824721       -1.1870264348
 C        -9.2158654184       -1.0947621426       -2.0286943745
 C        -8.6601468561       -1.2356710033       -8.2579628687
 C        -8.3680686575       -3.7301238530       -7.7168706579
 H        -4.9203654531       -1.6610413807       -7.1391759043
 H        -6.0300919416       -0.4204245080       -7.5760095082
 H        -5.9473982402       -2.0928189101       -8.4295182205
 H        -9.5964064188       -0.0018126687       -6.0497056844
 H        -8.5769977695       -0.4301055985       -4.6953651257
 H       -11.3939701570       -1.4227415975       -4.3031055551
 H       -11.6581012231       -0.0151584910       -5.1394861266
 H        -7.9416279604        1.4256564043       -1.6145878115
 H        -8.1824826359        2.3295946393       -0.1846192669
 H        -9.4313936599        3.1468978954       -2.8174441083
 H        -7.7982201149        3.5307791330       -2.5136052744
 H       -11.8284860520        6.0338507542       -0.9279104791
 H       -11.7485078489        7.8019278409       -1.2115135100
 H       -10.7841061059        7.5719114133        1.3089606900
 H       -11.9828777042        6.2479674534        1.3414966699
 H       -14.1634412975        7.6047649130        3.8315699020
 H       -13.3976088095        8.5902414310        4.8975316894
 H       -13.0738111388        5.7107795766        4.1799135409
 H       -13.2707199415        6.2060536958        5.8298662279
 H        -8.9364647147        6.8746517795        3.5705884330
 H        -9.1069394978        5.7445445168        2.0885200560
 H        -6.8242740495        5.6291754243        4.1550021669
 H        -6.7666576976        5.9325077844        2.3686352026
 H        -8.1767608619        0.1888623117        5.0776449687
 H        -6.5054360077        0.3311390275        5.2682988030
 H        -7.1398932842       -0.8610042925        4.1605395728
 H        -4.4282331928        2.5800470922        4.4814100900
 H        -4.6596557038        2.5544503114        2.7037998105
 H        -4.9103105884        1.1443445974        3.6113687798
 H        -7.6438291201        2.5272823665        5.6057982574
 H        -7.0671623498        4.3075256829        5.2256899885
 H        -5.9668557833        3.0585397666        5.8393672410
 H        -9.6648206338        5.7893461129        7.2246326405
 H        -8.3473508971        6.1289435310        6.0689490601
 H        -8.8342733174        4.4559120175        6.7820646941
 H       -12.0233922688        3.7373865990        5.6675389218
 H       -10.9979614898        4.0176331300        7.0427712509
 H       -10.4497626476        3.0516233749        5.6268601358
 H       -10.7248374699        9.6831667453        1.5023406985
 H       -11.2007438581       10.7515671455        2.8049397246
 H       -11.8511427870       11.1016224873        1.2923842802
 H       -13.8598386519       10.7168476472        3.4496116328
 H       -15.0508275574        9.7609742141        2.4727075308
 H       -14.1209942460       11.0075927949        1.7323955326
 H        -7.1050451427        7.3765242298       -1.7921549735
 H        -6.6991060582        5.6360405609       -2.1646527907
 H        -7.1750993074        6.1424483723       -0.4996755781
 H       -10.1385096508        6.8800794502       -3.5690913190
 H        -9.8027938921        5.1732369703       -3.6730115167
 H        -8.7499419354        6.2529517628       -4.1858562067
 H       -11.3265956635       -0.7154508494       -0.1324402303
 H       -11.6611576608       -1.6118582576       -1.5435777781
 H       -12.4023439744        0.0426169995       -1.3397419328
 H        -9.1250765640       -1.8450200967       -1.2313903389
 H        -8.1966351946       -0.7626007923       -2.2905522708
 H        -9.6527537367       -1.7824861162       -2.8403670264
 H        -9.2906085634       -0.4322219580       -7.9553072521
 H        -9.0632877334       -1.7546226986       -9.1172799359
 H        -7.7241518929       -0.8003000875       -8.5177291731
 H        -7.3553664042       -3.9373691099       -7.8811171956
 H        -8.9636901100       -3.8936388726       -8.5875994337
 H        -8.6946066082       -4.3828399947       -6.8933633838
 Na       -9.6794190633        2.8870357824        1.4015618436
