117

 C       -14.3461677155       -0.9808810730        5.5620270068
 C       -13.0570735973       -0.8440065775        4.7913410550
 O       -12.0562919144       -0.3183172434        5.2754283842
 C       -13.0067618188       -1.7039944214        3.4018198784
 C       -11.8212034870       -1.3684892847        2.4452907175
 O       -12.0014046756       -1.1711552734        1.2754848798
 C       -10.3861529583       -1.4861259704        3.0652538965
 C        -9.4608136492       -1.0841065428        1.9867282595
 C        -8.0535854861       -1.7312369413        2.0068931083
 O        -7.9850328742       -2.9565390254        1.8170932594
 C        -6.7943514815       -0.8245391416        2.1414483642
 C        -7.1469318578        0.5585343323        2.9005426303
 O        -7.4106341200        0.5901553103        4.0883787729
 C        -7.1509707585        1.8944651415        2.1312640943
 C        -6.9757330048        3.1377084408        3.0248940450
 C        -7.8940206356        4.1532416228        2.3925404607
 O        -7.4994989960        4.7027721510        1.3482415366
 C        -9.4329408477        4.3675566627        2.8688551055
 C       -10.4388682392        4.1166911579        1.7225273566
 O       -10.8104123861        4.9833326843        1.0065243433
 C       -11.3389930421        2.7821165060        1.6602589400
 C       -11.6992433031        2.5051400850        0.1421266364
 C       -10.4446976450        2.4875909342       -0.7729926134
 O        -9.3068790221        2.4096276088       -0.3514497792
 C       -10.6007326151        2.7619044578       -2.3802859903
 C        -9.6812985190        3.8780571200       -2.8649689216
 O        -8.9961278011        4.6238889531       -2.1691651008
 C        -9.6368075602        4.0335261257       -4.3502870792
 C        -9.2278792655        5.4294287356       -4.8397372659
 C       -10.5434535534        6.2114196218       -5.2019859870
 O       -11.6170230627        5.7211218418       -5.0229495600
 C       -10.4513123522        7.7444105041       -5.8159545509
 C       -10.2840111764        8.7035066260       -4.5535401191
 O        -9.2093332325        9.1535240108       -4.2679714884
 C       -11.3727610770        8.7921056999       -3.5003609640
 C       -10.8013505123        9.5917712429       -2.2737464500
 C       -10.0109259715        8.7119758198       -1.4205897604
 O       -10.3703600069        7.5613396049       -1.3294592414
 C        -8.6415753408        9.1047609377       -0.6893733387
 C        -7.5505286753        8.2518922065       -1.5336094385
 O        -7.5170904650        7.0382833442       -1.4515343492
 C        -6.4385763822        9.0705456673       -2.0993996256
 C        -8.4573537942       10.5801961248       -0.7041545245
 C        -8.5761675371        8.6612777530        0.8296070866
 C        -9.2975215985        7.8673109151       -6.7381232997
 C       -11.7287998539        7.9123690910       -6.5430585579
 C       -10.0506759275        1.3859501308       -3.0030856150
 C       -12.0410003433        3.0966593300       -2.7984333234
 C        -9.6842727445        3.3618605028        4.0104856190
 C        -9.6823953324        5.8027577133        3.3713242470
 C        -5.8272293638       -1.5651772928        3.1001041070
 C        -6.4838145688       -0.5941908143        0.6525619332
 C       -12.8060347204       -3.1693973398        3.8801672748
 C       -14.3683356693       -1.4906563828        2.6305493640
 H       -14.5795094433       -2.0294541029        5.5442480659
 H       -15.2826202332       -0.4903885535        5.0812264482
 H       -14.4516656625       -0.7088726440        6.6522707698
 H       -10.2872573336       -2.5985094941        3.3591809010
 H       -10.3052772114       -0.9986848107        3.9829090689
 H        -9.3654227738       -0.0402983053        1.9551443977
 H        -9.8036876173       -1.5188247909        1.1082275486
 H        -8.0840917548        1.8038984985        1.5536206957
 H        -6.4097833104        1.7474320686        1.3284668596
 H        -5.9648227200        3.6078531951        2.9588784839
 H        -7.1831014582        2.9028537461        4.0482350482
 H       -12.2695984746        3.0073436770        2.1897841825
 H       -10.8708053488        1.9750628789        2.1255029212
 H       -12.4274005481        3.2660661373       -0.1034073703
 H       -12.1835283724        1.5503032314        0.0585880260
 H       -10.4945417042        3.5086336876       -4.8731040676
 H        -8.6861641804        3.4225551091       -4.5104320260
 H        -8.5638956624        5.3310873109       -5.7238437310
 H        -8.6417285250        5.9484970007       -4.0590166716
 H       -11.6673397188        7.7483261305       -3.2276203631
 H       -12.3558141200        9.1884007638       -3.9822709650
 H       -11.6485064448        9.8485869998       -1.5898558794
 H       -10.3038350429       10.5059359716       -2.5640139611
 H        -6.6964259691        9.9556470401       -2.6854440360
 H        -5.7886064166        8.3683265881       -2.6867188701
 H        -5.7407978187        9.4127284730       -1.3444029767
 H        -9.1755822815       11.0405797286       -0.0588304044
 H        -8.5518801017       11.0160270621       -1.6511185373
 H        -7.3819783675       10.8378628030       -0.4254335893
 H        -9.5239955303        8.8891243048        1.3563784144
 H        -7.8014309437        9.2256627463        1.4020629363
 H        -8.2324718857        7.7110496151        0.9883518054
 H        -9.1778374565        7.1546436736       -7.5174542523
 H        -8.4261063724        7.7213928778       -6.1137307228
 H        -9.3748722616        8.8604770064       -7.2270950305
 H       -11.6296421888        7.7049090057       -7.6372791026
 H       -12.0260731986        8.9527532862       -6.6367453387
 H       -12.5331062337        7.3208913408       -6.1502765683
 H       -10.9141599216        0.6968664991       -3.1448832162
 H        -9.3618775843        1.0202375327       -2.2721386408
 H        -9.5865930286        1.6009826942       -3.9877103222
 H       -12.5358251361        3.6410748340       -1.9837599623
 H       -12.5575661955        2.1695885986       -3.1202659340
 H       -12.1101647525        3.9411349076       -3.5619043259
 H        -9.4863930017        2.3303849083        3.9894035884
 H       -10.7474434741        3.3254116243        4.3025645842
 H        -9.2220231998        3.6270003793        4.9543653079
 H        -9.3358493830        6.6598419051        2.7876587835
 H        -9.3850618346        6.0261757709        4.3561246613
 H       -10.7768817963        5.8291858460        3.4007518614
 H        -5.8235051031       -2.6043914246        2.8530382718
 H        -6.1247611264       -1.3583192679        4.1427749001
 H        -4.7752569558       -1.2574048789        2.9586130332
 H        -7.4164570152       -0.3114422672        0.1689081004
 H        -6.1732920448       -1.5219567064        0.2419730792
 H        -5.6815215039        0.1197107528        0.5621376715
 H       -11.8028512712       -3.2995739512        4.2331693997
 H       -12.9466160040       -3.9254131584        3.0934063561
 H       -13.4423689925       -3.2716300504        4.7404872935
 H       -14.3321603774       -0.5552936620        2.1301624162
 H       -15.1849462352       -1.7627283854        3.2971235359
 H       -14.3775569465       -2.2924820971        1.9316597653
 Na       -8.9245992410        5.7031913058       -0.2867531355
