117

 C        -6.4636081501       -1.9977521047       -8.6592375645
 C        -7.1467759771       -1.8965016467       -7.1773480525
 O        -6.4256183842       -1.5755071181       -6.2411222218
 C        -8.6485552584       -2.2941653090       -7.0070260380
 C        -9.0158116114       -2.2816420918       -5.5492106720
 O        -8.9213790200       -3.1518974505       -4.6741329505
 C        -9.4986956550       -0.7655314610       -4.9079607976
 C       -10.9036678085       -0.8496872703       -4.2677842601
 C       -11.1621857885        0.1663977457       -3.0995569632
 O       -11.1561927478        1.3526703849       -3.5255557723
 C       -11.1045197739       -0.2313960470       -1.6201428570
 C       -10.3746449600        0.7833260756       -0.6310521402
 O       -10.8787470812        0.9190237002        0.4544569506
 C        -9.0241821921        1.3681521638       -1.0182600874
 C        -9.2061433164        2.6860314325       -1.8173329503
 C        -9.3179009734        4.1163489775       -1.2138943611
 O        -9.7796301791        4.4346625722       -0.1246586010
 C        -9.0278380176        5.3601958583       -2.1144935518
 C        -9.5801302103        6.7110939188       -1.4393607618
 O        -8.7152936664        7.5440629207       -1.6131544685
 C       -10.9380851855        6.8627740958       -0.8282112162
 C       -10.8414356861        7.7885753812        0.4039691130
 C       -12.0426439678        8.7086342656        0.5293736593
 O       -12.7571213860        8.8266510784       -0.4653530756
 C       -11.9780350078        9.7081070692        1.7576180414
 C       -11.5299469240        8.6514464022        2.9666710870
 O       -10.3682238653        8.4016082219        3.3033990691
 C       -12.8627016742        7.9041289312        3.4435977203
 C       -12.5152714412        6.5693160515        4.1868371024
 C       -11.6109427243        6.7348837476        5.4419554456
 O       -11.4603587662        7.8075755539        6.0607981453
 C       -10.6901929935        5.5737351963        5.7328411225
 C        -9.8515328153        5.1191420880        4.4565614351
 O       -10.2409091286        4.1134786209        3.8663827354
 C        -8.7482908297        6.0217721373        3.7929291818
 C        -7.3403929125        5.5015391048        4.0147866787
 C        -7.1890830263        4.1062275703        3.3834963230
 O        -7.5090725705        3.8826183917        2.2245451865
 C        -6.4827291994        2.9130943670        4.2148791057
 C        -7.1641683242        1.5537057333        3.9727437549
 O        -8.0605784139        1.3575553457        3.1522591874
 C        -6.4318126424        0.4799972575        4.7529684267
 C        -4.9725163334        2.6446893917        3.7831903278
 C        -6.6089862286        3.1715400190        5.7086068361
 C        -9.5985514312        6.0055510931        6.7525537119
 C       -11.4986365595        4.3191558161        6.2128012664
 C       -11.1964915653       10.8543402213        1.2841736768
 C       -13.3616492891       10.3337917492        2.0796479480
 C        -7.4589615154        5.4071030043       -2.0914744132
 C        -9.4627278690        5.3457743502       -3.7058672925
 C       -12.6043702750       -0.4863826899       -1.0579725369
 C       -10.2627910681       -1.5875467858       -1.5131875124
 C        -9.4799711830       -1.3305925359       -7.9329835751
 C        -8.9487995980       -3.8011726480       -7.5363731482
 H        -6.7134014716       -2.9362054761       -9.1404346838
 H        -5.3026989818       -2.1309604716       -8.6440125391
 H        -6.8797103933       -1.0762311118       -9.2177056212
 H        -9.3192085991        0.0394700498       -5.7073852977
 H        -8.6989492122       -0.4721145324       -4.2422490415
 H       -11.1102383413       -1.9144750280       -4.0353600266
 H       -11.5872535635       -0.5093284884       -5.0666380462
 H        -8.3820784335        0.6239155285       -1.5097916375
 H        -8.4526365740        1.4918154607       -0.1178051419
 H       -10.2734209553        2.5588571592       -2.2929703280
 H        -8.5333691928        2.6018603825       -2.6457190632
 H       -11.4075246081        5.9152119495       -0.6163073943
 H       -11.6082666061        7.3711683641       -1.4998376667
 H        -9.9444703056        8.4256083678        0.2244495244
 H       -10.5684783286        7.3358100985        1.3392152152
 H       -13.3972765742        7.3387938511        2.5688587878
 H       -13.4812470363        8.4629136906        4.1734650527
 H       -12.1343478858        5.9207632019        3.3565086000
 H       -13.3164852751        5.9039933024        4.4190205215
 H        -8.8776664287        6.9587323119        4.2071180216
 H        -8.9740479980        6.1015064990        2.7083952256
 H        -7.0588046650        5.5011222649        5.1051107686
 H        -6.6521649126        6.2621142370        3.4712145985
 H        -6.0161086974       -0.3476450285        4.1883921810
 H        -7.0532434245        0.0088330019        5.5844959854
 H        -5.6120428027        0.9194273392        5.2127244311
 H        -4.9646700793        1.6377245992        3.2207047534
 H        -4.2963647923        2.5469592230        4.6018196266
 H        -4.6128718956        3.4503753892        3.1848078898
 H        -7.5996128888        3.0067982042        6.1028756837
 H        -6.2622188943        4.2013485522        6.0672770658
 H        -5.9264447809        2.3931604268        6.0642367518
 H       -10.0500714457        5.9985270348        7.6779596089
 H        -9.3173061431        6.9269769713        6.6326858608
 H        -8.7717479020        5.3785131740        6.5201555418
 H       -12.2697582353        4.0561863801        5.4585834498
 H       -11.9335175285        4.4582609369        7.1939438331
 H       -10.8853158413        3.4266485105        6.3600277793
 H       -10.3470646354       10.5394578586        0.7943064884
 H       -10.6809738630       11.3468373351        2.1621669658
 H       -11.8767503478       11.4709463070        0.6942205090
 H       -13.6211029056       10.2900040608        3.1724435390
 H       -14.2134359372        9.7418511580        1.6494381416
 H       -13.5418718131       11.4539955524        1.9864265167
 H        -7.1411317556        6.2482314833       -2.5854079582
 H        -7.0556998869        4.4276603408       -2.3995430430
 H        -7.1726980612        5.5698618287       -1.0169645661
 H       -10.3566144361        4.7769547582       -3.9626420967
 H        -8.7134671297        4.9750360396       -4.4496794539
 H        -9.6098666030        6.3770642853       -3.8077871754
 H       -12.5299199660       -1.3629683979       -0.3090897456
 H       -13.0452426592       -0.6750975988       -2.0076022474
 H       -13.2086888606        0.2749650595       -0.5896409024
 H       -10.0790805041       -1.7933583810       -0.4679860087
 H        -9.3776844184       -1.5050908609       -2.0539308688
 H       -10.8288250225       -2.4031092959       -1.9662359092
 H       -10.1827835515       -1.8481982556       -8.5384636314
 H        -8.8630300923       -0.7438974537       -8.6407848007
 H        -9.9569104355       -0.5217883468       -7.3927848355
 H        -8.3795238059       -4.0335256482       -8.3958343425
 H        -9.9488743088       -3.9430184615       -7.7836919286
 H        -8.6664328287       -4.4753158820       -6.6452498468
 Na       -9.4288169563        2.7805014173        1.6795493979
