117

 C        -6.5888175049       -2.1627141583       -8.7327668121
 C        -7.1634971663       -1.9440197769       -7.2374321850
 O        -6.3990286420       -1.4184948341       -6.5449782712
 C        -8.7214692901       -2.2282692960       -6.9839720085
 C        -9.0080251846       -2.1627777354       -5.4332781719
 O        -8.7627579921       -3.1521125689       -4.8159277886
 C        -9.5605737894       -0.9455204765       -4.6071955485
 C       -11.0746312058       -0.9571231716       -4.2156751098
 C       -11.0764607274        0.1504350428       -3.1255396777
 O       -11.2770333574        1.3068431355       -3.4016551869
 C       -11.1357673621       -0.3652086573       -1.6008579898
 C       -10.4455094618        0.7780625583       -0.5022425309
 O       -10.9507233478        1.0148271817        0.5906258679
 C        -9.1713052457        1.5291235065       -0.9490451257
 C        -9.3290406002        2.6558180547       -1.9163686201
 C        -9.5560965235        4.0150750317       -1.4295278015
 O        -9.6683078075        4.3149222105       -0.2072120643
 C        -9.0207197770        5.2842966906       -2.2590307275
 C        -9.4365294000        6.5847077302       -1.6492281771
 O        -8.7109067930        7.5686125519       -1.7107690357
 C       -10.7539177320        6.7861431364       -0.9712819318
 C       -10.6185223955        7.8134849014        0.2696498128
 C       -11.8503123277        8.7639685947        0.3467119867
 O       -12.7642294216        8.7950393811       -0.4139584412
 C       -11.9278823563        9.7352665085        1.6958075768
 C       -11.5771542089        8.7772280365        2.8786622228
 O       -10.4396009582        8.5659811804        3.1903582949
 C       -12.6608733127        7.9290551440        3.2717096446
 C       -12.4148223129        6.6317741674        4.1083100269
 C       -11.4896214676        6.9348411917        5.3913934868
 O       -11.8111532340        7.8989522791        6.0322110154
 C       -10.5897650802        5.5714961111        5.7486476242
 C        -9.8898995816        5.0410032443        4.4110932976
 O       -10.1637120552        3.9357283737        3.8939096724
 C        -8.8374803934        6.0210896775        3.9357696007
 C        -7.3381704111        5.4558630883        4.1116477515
 C        -7.1121625202        4.0457911415        3.5033210462
 O        -7.5455663613        3.8291659469        2.4326748529
 C        -6.3620841349        2.9593819785        4.3691175467
 C        -7.0560119556        1.5685785743        4.0740011856
 O        -7.9965779426        1.3536883259        3.3002722661
 C        -6.3730988116        0.3069752092        4.6685999638
 C        -4.9783014574        2.8593913383        3.7371500923
 C        -6.5190492318        3.2795484250        5.8924528423
 C        -9.6312095790        5.9804263477        6.9479561394
 C       -11.5479355429        4.4701037773        6.3366759112
 C       -10.8485798823       10.9220935788        1.3388394814
 C       -13.4051050369       10.3155364301        1.8009191083
 C        -7.5196528251        5.2177981545       -2.2014474328
 C        -9.5272438882        5.2919950231       -3.7959046686
 C       -12.5995777758       -0.4295216278       -1.2237820220
 C       -10.3848758202       -1.6326646092       -1.3460686747
 C        -9.6490225021       -1.3752813646       -7.7902239362
 C        -8.8388065222       -3.8310628107       -7.4589995254
 H        -7.3529258817       -2.7328683298       -9.2495977038
 H        -5.7190892198       -2.8278338204       -8.9101642617
 H        -6.6089927845       -1.1131144938       -9.1319596506
 H        -9.1386390805       -0.0910173039       -5.1741654253
 H        -8.9679220138       -0.8542016814       -3.7129478604
 H       -11.2949681529       -1.9226500724       -3.7038613161
 H       -11.7190147621       -0.7355136950       -5.0402539907
 H        -8.3755350853        0.8864428183       -1.2818658089
 H        -8.6948114752        1.8222864300        0.0824588037
 H       -10.0642221258        2.2990242659       -2.7199452928
 H        -8.2932851759        2.6338912431       -2.4408689471
 H       -11.2808217567        5.9299796333       -0.7042943148
 H       -11.3905280574        7.2914267304       -1.5980515563
 H        -9.7155080043        8.3364288517        0.1437401048
 H       -10.4758335025        7.4217945786        1.2362258187
 H       -13.3045174622        7.4999280380        2.4886073965
 H       -13.1780735182        8.5769069967        4.1340089965
 H       -12.2343325623        5.8148921899        3.2935145084
 H       -13.3730095306        6.1710280412        4.4767364981
 H        -9.0320618327        7.0416335405        4.3683961784
 H        -9.0712420140        6.1237805202        2.8918544450
 H        -7.0927872889        5.5504949520        5.1496111325
 H        -6.6927014134        6.1736184340        3.6254549437
 H        -5.7444327462       -0.3727725854        4.0202043183
 H        -7.1806144768       -0.2839849980        5.1637419170
 H        -5.6593831136        0.5724217800        5.4907309912
 H        -5.1353706318        2.1476538314        2.8851680901
 H        -4.3393914320        2.2517134251        4.4349979288
 H        -4.4824409731        3.8071572657        3.4551853985
 H        -7.4230032286        2.8611038740        6.3463240259
 H        -6.5517119336        4.3732894541        6.1114819657
 H        -5.5976426734        2.8311962143        6.3899922838
 H       -10.3117976132        5.9040461778        7.7200248746
 H        -9.3509074469        7.1037290649        6.9934376894
 H        -8.7267873802        5.3731588359        6.8591565445
 H       -12.4745025690        4.2802496110        5.7908502612
 H       -11.7414358647        4.7157852773        7.4233055378
 H       -11.0400595359        3.5195913606        6.4344801936
 H        -9.9108170705       10.4244156265        0.9514149794
 H       -10.3804334638       11.2847972148        2.2626142834
 H       -11.3093406176       11.6694948522        0.6649029062
 H       -13.8246177436       10.3001504222        2.8585854367
 H       -14.2266281789        9.7769941771        1.2352003847
 H       -13.4265704215       11.3926034264        1.6774147989
 H        -7.0542897844        5.9823855975       -2.8500889118
 H        -7.1861661692        4.2468867125       -2.2844319074
 H        -7.2927560484        5.5110237414       -1.1834327688
 H       -10.6512189356        5.0628723084       -3.8648681479
 H        -9.1193397821        4.5160904491       -4.4679097670
 H        -9.2852472232        6.3335757487       -4.0760159095
 H       -12.7467492381       -0.8931393960       -0.2652171366
 H       -13.1310473604       -0.7207418170       -2.0979493960
 H       -12.9964304639        0.6691921809       -1.1058670557
 H       -10.4280311834       -1.9027554252       -0.3507386856
 H        -9.3998972523       -1.4684779575       -1.6596409345
 H       -10.7446299121       -2.3687542545       -2.0156395340
 H       -10.3302054563       -1.8193415838       -8.5110224447
 H        -9.0322550195       -0.6395356752       -8.3576024534
 H       -10.1948101436       -0.6515260208       -7.1628218181
 H        -8.2659136000       -4.1842684913       -8.3239652408
 H        -9.9091353825       -4.0906436231       -7.6430353517
 H        -8.5519773686       -4.3081567254       -6.5234181561
 Na       -9.5432407266        2.8492286101        1.7729072292
