117

 C        -7.6794915301       -2.2548465684       -8.7356178013
 C        -8.0344694594       -1.5407434479       -7.3596266039
 O        -7.4930259563       -0.5537543212       -6.9205806209
 C        -9.2245437778       -2.2437808640       -6.5295094778
 C        -8.7166000310       -2.1855616882       -4.9965364684
 O        -8.0928496672       -3.1152251742       -4.5936899264
 C        -9.2246128722       -1.0509886900       -4.0679560513
 C       -10.1922842390       -1.6347229107       -3.0331101662
 C       -11.0710196062       -0.4912099628       -2.5400437041
 O       -11.6507338476        0.2256730421       -3.3919834442
 C       -11.3066402589       -0.3357097610       -0.9768864594
 C       -10.4574800355        0.9093622214       -0.4159260859
 O       -10.9697002865        1.6673405262        0.3847244530
 C        -9.0105197035        1.3275126714       -0.9051434813
 C        -9.1962218874        2.3116493977       -2.0832207722
 C        -9.0218746405        3.7453974883       -1.5874104086
 O        -9.0410446570        4.0076961378       -0.4354880099
 C        -8.8470577244        4.9656753852       -2.7062005702
 C        -8.9287545826        6.3844113930       -2.0470393540
 O        -7.9616236490        7.1082872569       -2.3142328607
 C       -10.0774703681        6.8504414908       -1.2616766897
 C        -9.9686219786        8.2594744000       -0.8053333606
 C       -11.3553856438        8.6892204862       -0.1537101464
 O       -12.3976282660        8.2380277167       -0.5520224404
 C       -11.2186668666        9.7467230997        1.0727459849
 C       -11.2394478225        8.9481238311        2.4318087556
 O       -10.1606142685        8.9246204934        3.1047654091
 C       -12.5131038074        8.2318872321        2.8172670095
 C       -12.5826776799        6.8151667701        3.6216563885
 C       -12.0918823413        7.1064353666        5.0390288748
 O       -12.3152453061        8.1240400771        5.6867990049
 C       -11.2153173255        5.9402865255        5.6719416794
 C       -10.2596471204        5.0661179598        4.5948704490
 O       -10.5393345733        4.0848938208        3.9135375066
 C        -9.0352705133        5.9892914470        4.2909877402
 C        -7.6823142116        5.3080227581        4.6852515503
 C        -7.2671799063        4.0249767519        3.8386058255
 O        -7.4003056329        4.0180702765        2.5761315268
 C        -6.3887631747        2.8831338043        4.4882788816
 C        -6.9788387510        1.4569592090        4.1353401792
 O        -8.0534274552        1.3665038911        3.5761687417
 C        -6.0230726439        0.3037398237        4.3084363910
 C        -4.9732770756        3.0708914243        3.9332030545
 C        -6.1103686680        3.0719346927        5.9795625378
 C       -10.3417404690        6.5611669726        6.9204569339
 C       -12.1227390437        4.8801550564        6.4612258978
 C       -10.0730730028       10.7705303943        1.1490611475
 C       -12.5195207948       10.7382132771        1.0483829287
 C        -7.4998507737        4.6589450752       -3.3325089536
 C       -10.0720173380        5.0047727286       -3.6996794910
 C       -12.7412418649        0.1377298167       -0.9259924704
 C       -10.9582309697       -1.4715712452       -0.0418669353
 C       -10.5199941945       -1.6278789750       -6.9398019636
 C        -9.3625729153       -3.8213769311       -6.8628200925
 H        -6.9052144977       -2.0154743286       -9.3205063194
 H        -8.5124351435       -2.0122406953       -9.4279695309
 H        -7.6895179070       -3.2434158796       -8.3402961767
 H        -9.8336454192       -0.2933789021       -4.5660507041
 H        -8.4619722795       -0.6118804267       -3.4615721562
 H        -9.8947931955       -2.2197289867       -2.1965319799
 H       -10.9299498474       -2.3061580257       -3.5346204908
 H        -8.4988969388        0.3141482244       -1.0959136116
 H        -8.4715437910        1.8744795047       -0.1574668168
 H       -10.2230628995        2.1963378333       -2.5190811807
 H        -8.5656287233        2.0381868909       -2.8751904568
 H       -10.1210310823        6.2658858407       -0.3653683445
 H       -11.0724028059        6.7386917097       -1.7145799500
 H        -9.5935391152        8.8932157101       -1.6115878025
 H        -9.2755097674        8.3010001010        0.0198363219
 H       -12.8976156789        7.9324698480        1.8901409812
 H       -13.1378463224        8.8595992130        3.3389222380
 H       -12.0567637058        6.0315443542        3.0372166122
 H       -13.6696200257        6.5723557333        3.6295246628
 H        -9.2069094241        6.9749813257        4.6952644844
 H        -8.9549534565        6.1851885076        3.1455476565
 H        -7.7226498356        4.9963163308        5.6911518749
 H        -6.8843907993        5.9852908095        4.5543493097
 H        -6.0754179391        0.1808964325        5.4043272100
 H        -4.9133725119        0.3929885190        3.9358373606
 H        -6.2435789881       -0.6154114361        3.7703186043
 H        -4.8587657487        2.6449567398        2.8461340126
 H        -4.3085708260        2.5961796508        4.6231225782
 H        -4.7851787364        4.1011342447        3.7255016071
 H        -6.9743473994        3.0708098542        6.6707901128
 H        -5.3569230977        3.9450660883        6.0370358042
 H        -5.4514783223        2.2079680147        6.2757045133
 H       -11.1076242774        6.6784498260        7.6820447158
 H        -9.9187405111        7.5215679187        6.5129110937
 H        -9.6590285243        5.6667550932        7.2834491294
 H       -12.9186860774        4.4073685276        5.8522184566
 H       -12.6972771317        5.4081931922        7.1930010013
 H       -11.4738225298        4.0988171786        6.8822216853
 H        -9.1478076105       10.3404297620        1.2754947831
 H       -10.4881708245       11.4980554700        1.9035122510
 H       -10.0142164851       11.3459237018        0.1999517140
 H       -12.1382097462       11.6911256958        1.3574526188
 H       -13.2752255995       10.5653275768        1.7956495012
 H       -12.9890163868       10.8297044829        0.0492225206
 H        -7.0714025010        5.5298508472       -3.6575315877
 H        -7.5680103431        3.8686604719       -4.0988254614
 H        -6.8743868385        4.3669184045       -2.4651157678
 H       -11.0209183354        4.7051104424       -3.1578843173
 H        -9.8148668414        4.3315668339       -4.6000418677
 H       -10.1991677040        6.0282170038       -4.0061695473
 H       -13.0426505590        0.3410605551        0.1285780670
 H       -13.3635152896       -0.5705670361       -1.2946956734
 H       -12.7336841945        1.0679462441       -1.4753950959
 H       -11.4842625283       -1.4924888704        0.8894641632
 H        -9.9093618503       -1.3687954844        0.0082273431
 H       -11.2268022373       -2.3889646440       -0.5585672700
 H       -10.7036380485       -1.3324006695       -7.9788139801
 H       -10.8753348749       -0.7300820528       -6.3836807038
 H       -11.2827006462       -2.4101172357       -6.8211561770
 H       -10.3039061419       -4.1405262833       -7.3193130808
 H        -9.1640957579       -4.3697451779       -5.9459644971
 H        -8.5309294501       -4.1440062142       -7.6306637347
 Na       -9.3736896355        2.8296957651        1.9913512537
