117

 C        -7.8359780943       -2.0997412821       -8.6657167020
 C        -8.2511992792       -1.5333830169       -7.2571935831
 O        -7.7806929469       -0.5138895411       -6.9395190128
 C        -9.3276706339       -2.3389802449       -6.4478704966
 C        -8.7966684541       -2.2295064189       -4.9976881939
 O        -7.9175683213       -2.9776189592       -4.6067601948
 C        -9.2732601354       -1.1531833483       -4.1016052917
 C       -10.1306991332       -1.7525488286       -2.8763664667
 C       -11.0081498536       -0.5995463426       -2.3477681271
 O       -11.5389040474        0.0881518083       -3.1692326303
 C       -11.2772240855       -0.1499994537       -0.8871975239
 C       -10.4194694225        0.9747298710       -0.2707480167
 O       -10.8374576869        1.6437419903        0.6606813343
 C        -8.9759813277        1.1438981738       -0.9141280980
 C        -9.1977871575        2.2608431757       -2.0017520015
 C        -8.9259927590        3.6781475975       -1.6423492543
 O        -8.9107757719        4.0791045501       -0.4465792720
 C        -8.8275785021        4.8382084531       -2.7497770150
 C        -8.8217560770        6.2555786623       -2.0069689309
 O        -7.8695067596        6.9644366414       -2.2221723746
 C       -10.0116793638        6.6709174651       -1.1718959310
 C        -9.9052604701        8.2069813652       -0.9063750451
 C       -11.1130473515        8.7660398598       -0.0452241106
 O       -12.1337943429        8.2405681609       -0.3913423020
 C       -11.1545293160        9.8351605639        1.1259661621
 C       -11.1294269705        8.8776615773        2.3365862251
 O       -10.0984415573        8.7973615496        2.9649454612
 C       -12.5216327806        8.1968333719        2.6040830094
 C       -12.5141883240        6.9166911064        3.6260032438
 C       -12.1552575764        7.1888324507        5.0158374233
 O       -12.4518463040        8.1842450051        5.5952319165
 C       -11.2958392028        5.9377286537        5.6213687225
 C       -10.3833657057        5.3137572443        4.4883104514
 O       -10.6406286886        4.2597644444        3.8829060383
 C        -8.9886835253        5.9744105698        4.1149860341
 C        -7.6506419355        5.2163989971        4.6406076034
 C        -7.2444903071        4.0306632392        3.8992789951
 O        -7.3629635232        3.9822530033        2.6896847025
 C        -6.3480398111        2.8974498139        4.4972558788
 C        -6.9775871240        1.5057381795        4.0061860537
 O        -8.0434725106        1.3421035096        3.4209634141
 C        -6.0887029722        0.2714390026        4.3362898864
 C        -5.0394709616        3.1260284649        3.6688300075
 C        -6.2084670657        2.9929428090        6.0490483326
 C       -10.5312451790        6.6341590939        6.8436527967
 C       -12.4099346782        4.9119010700        6.2153164009
 C        -9.9416032038       10.7127996883        1.1067485534
 C       -12.5137074157       10.5864609098        0.9113786080
 C        -7.5281051816        4.8143556172       -3.5653278439
 C       -10.0960053343        4.8854743384       -3.7305619448
 C       -12.8695545652        0.2674708692       -0.9134905220
 C       -11.0302941545       -1.3366594932        0.2149082502
 C       -10.5969679656       -1.6367201130       -6.7578813192
 C        -9.4253312084       -3.8789925724       -6.7765864180
 H        -7.0455627973       -1.4915041010       -9.1168809051
 H        -8.5920180608       -1.8413510747       -9.3618122357
 H        -7.6558325871       -3.1271506209       -8.5397759878
 H        -9.8872682686       -0.3839510276       -4.6184728032
 H        -8.4811131781       -0.7651090870       -3.5209570446
 H        -9.4991095850       -2.0850204656       -2.0191700196
 H       -10.7481580924       -2.6014465299       -3.0081472731
 H        -8.7846978441        0.2105203586       -1.2839323436
 H        -8.2489237907        1.4324360512       -0.1527683731
 H       -10.1815729835        2.1709883441       -2.3297134348
 H        -8.6377935589        2.0302283456       -2.8661989614
 H       -10.2944988606        6.0688327511       -0.2399224775
 H       -10.9490300167        6.6452506078       -1.8184736247
 H       -10.0346766496        8.6926342591       -1.9449859048
 H        -8.8903094319        8.4960930402       -0.4834479898
 H       -13.0824225283        7.8657231233        1.7455352147
 H       -13.0564497163        9.0596387015        3.2257280893
 H       -11.7975103339        6.2393482761        3.1665268798
 H       -13.4347833462        6.4827531224        3.6083144121
 H        -9.0541178009        7.0583432584        4.3645479218
 H        -8.8277382368        5.9943369092        3.0269738493
 H        -7.7026594889        4.8888144373        5.7007569437
 H        -6.7698177733        5.8802003490        4.5209616681
 H        -6.4806380814       -0.2476370911        5.2179915518
 H        -5.0424081526        0.4058533884        4.4178849698
 H        -6.0507452282       -0.3592657928        3.4522356985
 H        -5.1539609944        2.7114827521        2.6843283376
 H        -4.1591703121        2.7169307336        4.1867794615
 H        -4.9611202395        4.1629589478        3.4123706980
 H        -7.1488294651        2.8460608440        6.5928240084
 H        -5.5404864104        3.8039934029        6.3195997074
 H        -5.6399366209        2.0107872710        6.3150250090
 H       -11.0932331725        6.5199612523        7.6999020822
 H       -10.4236998727        7.6686161822        6.4293801768
 H        -9.6847405800        6.1034687887        6.9874767704
 H       -13.0756171230        4.5978036466        5.4304414389
 H       -13.0915176499        5.3895483516        6.9501401805
 H       -11.9358915467        4.0375656420        6.5771492677
 H        -9.1242941749       10.0422271274        0.8593021491
 H        -9.9310431255       11.2808644872        1.9848159701
 H        -9.9754720212       11.3852394078        0.3113900205
 H       -12.2630698722       11.5324401663        1.3221131973
 H       -13.2826085066       10.2038490983        1.5706475371
 H       -12.8593887036       10.6806231117       -0.0366431899
 H        -7.5137397044        5.8719045291       -3.9662890055
 H        -7.5845904308        4.1357874439       -4.3656895391
 H        -6.6261083963        4.7712863532       -2.9303440313
 H       -10.8735636310        4.4055960430       -3.1259714063
 H        -9.9105148461        4.4644779509       -4.6899922435
 H       -10.4400805495        5.9002131837       -3.8099319038
 H       -13.3255005130        0.2190729733        0.0120901586
 H       -13.3891785987       -0.5216083137       -1.4363656213
 H       -12.9442772559        1.2822976705       -1.3651919529
 H       -11.9100052852       -1.3471963495        0.8842446954
 H       -10.0502000090       -1.1026300659        0.6989770033
 H       -11.0809013069       -2.3351077076       -0.2986313042
 H       -10.8969899295       -1.4800884580       -7.7802019336
 H       -10.5758047941       -0.6225183879       -6.3135545059
 H       -11.4681981485       -2.1560326654       -6.3653122575
 H       -10.2861413810       -4.2787777683       -7.3165008926
 H        -9.2873008824       -4.3210290651       -5.7737904428
 H        -8.5638956576       -4.1866051099       -7.2786783106
 Na       -9.2601103982        3.0100661530        1.9066811307
