117

 C        -7.9130994453       -1.9344240274       -8.7620631435
 C        -8.3491744194       -1.6063210368       -7.3133517168
 O        -8.1671318733       -0.4784004429       -6.8451697742
 C        -9.3085043110       -2.4483048304       -6.3386690578
 C        -8.7774568318       -2.3319222727       -4.9012422684
 O        -7.7308770025       -2.9280210633       -4.6030848257
 C        -9.3151976059       -1.2051362648       -3.9515876010
 C        -9.9377125195       -1.6945728176       -2.6215595845
 C       -10.9800589589       -0.5427811410       -2.1537177427
 O       -11.4745235295        0.0652639371       -3.0606803058
 C       -11.3507234884       -0.1096332558       -0.6807807890
 C       -10.4547825605        0.9919433120       -0.1514478884
 O       -10.5289393383        1.6245572573        0.8965388309
 C        -9.1520934747        1.1775633728       -0.9787477383
 C        -9.1318750934        2.2456439344       -2.0821371337
 C        -8.9242703973        3.7092876887       -1.6322362466
 O        -8.7452459767        4.0214034942       -0.4127250294
 C        -8.8670837811        4.8108705077       -2.7055395004
 C        -8.7217559319        6.2087805277       -1.9779019970
 O        -7.7678519574        6.9260072671       -2.0109709228
 C        -9.8927751209        6.6780888049       -1.1159649799
 C        -9.7857651542        8.2509876883       -0.9097313704
 C       -11.0368575008        8.7180563067       -0.1363086657
 O       -12.1341529596        8.1411372861       -0.2520044141
 C       -10.9915254816        9.8260395764        0.9799551084
 C       -11.1301378370        8.8609672054        2.3639370768
 O       -10.1676720595        8.4525757994        2.9115867967
 C       -12.5070830216        8.3336900434        2.5246065357
 C       -12.4882012118        6.9984312391        3.2922042436
 C       -12.1499558934        7.1946527020        4.8137445017
 O       -12.5089570648        8.0900007408        5.5429947812
 C       -11.3264352610        6.0238033002        5.5700485300
 C       -10.3308137494        5.4491514708        4.5540097856
 O       -10.7702723692        4.4821689792        3.9364317748
 C        -8.9796485092        5.9456702239        4.0748962299
 C        -7.8428593224        5.2915726489        4.7454531164
 C        -7.3107451034        4.1205968855        3.8265218880
 O        -7.4877295515        4.0155498606        2.6884701367
 C        -6.3153146615        2.8683928094        4.3949465770
 C        -6.9166385322        1.5243987911        3.9376645662
 O        -7.9364892830        1.4476275972        3.2580903745
 C        -6.2419061201        0.2086480543        4.3771884502
 C        -4.9986509654        3.0715084654        3.5452991172
 C        -6.2937497186        2.8565451128        5.9733009240
 C       -10.5838514892        6.5808900102        6.7705420901
 C       -12.4836492354        5.0383531490        5.8108827360
 C        -9.7080325906       10.7049789797        1.0025705649
 C       -12.4059804547       10.5314272201        0.7592866633
 C        -7.5550146676        4.7444650016       -3.8574479012
 C       -10.0791743921        4.6074423723       -3.6785147404
 C       -12.8485000126        0.3575011272       -0.7070688172
 C       -11.1942122705       -1.3123749160        0.4032884163
 C       -10.8349124347       -1.6203173751       -6.5380275909
 C        -9.4730305698       -3.9611761351       -6.7416846426
 H        -7.3061610417       -1.0135732493       -9.0574870581
 H        -8.7364883260       -1.8627508768       -9.4922449378
 H        -7.4094001486       -2.8932396588       -8.7984118446
 H       -10.1919082768       -0.8408199018       -4.4632802756
 H        -8.5578104751       -0.4261888956       -3.6534293548
 H        -9.2811838715       -2.1988325019       -1.8705585784
 H       -10.6242137268       -2.5105638170       -2.8050627977
 H        -8.9454338480        0.2003960253       -1.3216759458
 H        -8.5134793823        1.4832660074       -0.1656837368
 H        -9.9231053657        2.0358570665       -2.7658110857
 H        -8.2294843199        2.0077610792       -2.7207043289
 H        -9.7556143116        6.3044927277       -0.0272216361
 H       -10.9617894313        6.4189436649       -1.3674234132
 H        -9.7332359246        8.9426446445       -1.8299978783
 H        -8.9009812988        8.4591748590       -0.2170119702
 H       -12.9962007397        8.0445182043        1.4666428349
 H       -13.1763702070        9.0697146195        3.1563468058
 H       -11.8160493881        6.3213011187        2.7643692454
 H       -13.5015992151        6.6808802718        3.1724894065
 H        -8.9788567718        7.0234882042        4.3194943250
 H        -8.8228587478        5.8939909991        3.0513966830
 H        -8.0902951790        4.8904139455        5.7981085050
 H        -6.9478421664        6.0231973826        4.8303039184
 H        -6.8315577582       -0.5216145052        4.8761225014
 H        -5.3667051214        0.3632356376        4.8993268652
 H        -5.8011245120       -0.1113293470        3.4604722364
 H        -5.1963896887        2.8876935560        2.5652499797
 H        -4.2643751158        2.3797081115        3.9393597008
 H        -4.6407045934        4.1251023692        3.5820228367
 H        -7.3412620869        2.5698367424        6.3155634096
 H        -5.8722084539        3.7369593470        6.4004275755
 H        -5.7462277123        1.9667188920        6.3203645028
 H       -10.9404015963        6.3990577301        7.7510892227
 H       -10.4443351557        7.5058786500        6.4936516307
 H        -9.7206187679        6.0073489060        6.7531450126
 H       -12.8702368681        4.7728425232        4.8517384099
 H       -13.3360206886        5.3334548432        6.4075822946
 H       -12.0364048430        4.1231581972        6.1586428168
 H        -8.8702262833       10.1064529997        0.6161314612
 H        -9.6238792486       11.0345390924        1.9729869451
 H        -9.7439870773       11.5681791392        0.4116996880
 H       -12.4411816373       11.4137681943        1.3840260771
 H       -13.1469596591        9.8385751701        1.0721214030
 H       -12.6209531135       10.8566561737       -0.2544465828
 H        -7.8045901818        5.5419172297       -4.6359347972
 H        -7.6403667021        3.7708870270       -4.3474088044
 H        -6.6084553662        5.0207144188       -3.4315706974
 H       -10.8517542627        4.2066247304       -3.1288012968
 H        -9.7401401876        4.0503629862       -4.4789510452
 H       -10.4300816725        5.5769525304       -4.0408239752
 H       -13.3579861308        0.4266968901        0.2429705964
 H       -13.4563331491       -0.4974304831       -1.2148400867
 H       -12.8098970271        1.2633529177       -1.2563180185
 H       -12.1529081554       -1.2721655270        0.9848188004
 H       -10.2661741301       -1.0564482721        1.0116020255
 H       -11.2217970024       -2.3196184007       -0.0555529132
 H       -11.4234127854       -1.8688168639       -7.4091376584
 H       -10.5402997613       -0.6080186458       -6.6608636501
 H       -11.5948663773       -1.6159697680       -5.7659720595
 H       -10.1460947133       -4.0213875599       -7.5770888808
 H        -9.8883681881       -4.4459940023       -5.8723987701
 H        -8.6063295320       -4.4868850630       -6.9384195921
 Na       -9.2336515238        3.2249002374        1.8371172255
