117

 C        -8.4930890486       -1.8234317025       -8.3287156867
 C        -9.0849149781       -1.3648980147       -6.9419260073
 O        -8.9329359696       -0.2119836621       -6.6615053419
 C        -9.6246082911       -2.4292617934       -5.9548708453
 C        -8.8444230060       -2.2514580531       -4.7185952882
 O        -7.8739005364       -3.0007914511       -4.5144069833
 C        -9.1808622126       -1.1146656057       -3.6858726364
 C       -10.0047724507       -1.5553497205       -2.3322515943
 C       -10.9435325875       -0.4326211814       -1.9073288413
 O       -11.4491840792        0.2046632996       -2.7860249822
 C       -11.1833772610       -0.1400629792       -0.3532922903
 C       -10.0497234131        0.8761696899        0.2556179312
 O       -10.3857187571        1.6036054497        1.1843673856
 C        -8.6960056383        1.0149811717       -0.5288382551
 C        -8.9477883078        2.0119365652       -1.8040860391
 C        -8.7825979127        3.4766336534       -1.5977612774
 O        -8.5228717282        3.9427140363       -0.4487275153
 C        -8.7314517651        4.5602046829       -2.7505246981
 C        -8.4829812820        5.9859271684       -1.9949480504
 O        -7.3827506875        6.3868752528       -2.0732742101
 C        -9.6450121987        6.6125933529       -1.1936401057
 C        -9.4594372474        8.0703208081       -0.8311848806
 C       -10.8347664033        8.6725740275       -0.3021708317
 O       -11.8729651627        8.0432691786       -0.4992710332
 C       -10.8318097099        9.8213847471        0.7621425349
 C       -11.2235800191        8.9110039484        1.9657768549
 O       -10.3575102883        8.2718937670        2.4525161072
 C       -12.6902705645        8.6660135674        2.2807489104
 C       -12.8660291501        7.3159017262        2.9634926477
 C       -12.3233862443        7.2336389976        4.4343812929
 O       -12.3353935550        8.1456672918        5.2196974700
 C       -11.6307294242        5.9040377406        5.1331656522
 C       -10.2949635385        5.5342618613        4.2356335760
 O       -10.4611802529        4.6855423683        3.3420148899
 C        -8.8844501726        6.0534017483        4.4276380941
 C        -8.0110973385        4.9703549648        4.9579397176
 C        -7.1902356198        4.2777685341        3.8590034747
 O        -7.2017568793        4.4972463581        2.6637182915
 C        -6.4134029616        2.9688982724        4.2386816695
 C        -7.0812464587        1.6637500572        3.5190711607
 O        -7.8566370590        1.8493798594        2.6274134311
 C        -6.8475035558        0.2957172411        4.1905911894
 C        -4.9951679797        3.0580934527        3.6037332767
 C        -6.3397020241        2.7727274753        5.7474093531
 C       -10.9313769666        6.3873585792        6.3741018564
 C       -12.5939892863        4.7550876107        5.3373311888
 C        -9.3385129322       10.2867721785        1.0390242818
 C       -11.8718469507       10.9108031622        0.5190409887
 C        -7.7494959606        4.3216731510       -3.8766283088
 C       -10.2095046784        4.7643576651       -3.4059014170
 C       -12.4746924401        0.6763839147       -0.2160171788
 C       -11.1688241725       -1.4065148713        0.5542070014
 C       -11.2074860771       -2.1818636623       -5.7656213834
 C        -9.2742848997       -3.8781454746       -6.4319248040
 H        -8.2217269412       -0.9255978720       -8.9909344314
 H        -9.0745179497       -2.5611440586       -8.7650710811
 H        -7.6429783732       -2.3186661689       -7.9393936423
 H        -9.7348187332       -0.2909276343       -4.1619576989
 H        -8.1857119106       -0.9118476550       -3.3900881542
 H        -9.4052226545       -2.1167460793       -1.5835891454
 H       -10.5850243777       -2.3795497748       -2.6482318433
 H        -8.3516252064        0.0841114494       -0.8329241186
 H        -8.0653824930        1.5046558474        0.2666574035
 H        -9.9213638553        1.8677626145       -2.0777965101
 H        -8.4572472519        1.6297170993       -2.6643021599
 H        -9.8562459408        6.0009873283       -0.2754322645
 H       -10.5947774409        6.5870978303       -1.7821691800
 H        -8.9484788273        8.6039033099       -1.6221780638
 H        -8.8414945777        7.9568718184        0.0640633196
 H       -13.3776126648        8.8626582285        1.4437655819
 H       -12.9109631475        9.4493371874        3.0679648971
 H       -12.2749280951        6.5934825709        2.3599050139
 H       -13.8864074928        7.0731337879        2.9897694587
 H        -8.8055759232        6.8840937335        5.2251116087
 H        -8.6324111226        6.4481160079        3.4281408175
 H        -8.6125049526        4.2500009931        5.4434381376
 H        -7.3808796361        5.3517583846        5.6912356049
 H        -7.1891157999       -0.5287147359        3.4650569831
 H        -7.3461460352        0.1104128649        5.1312935658
 H        -5.7191154805        0.1594978759        4.4057470844
 H        -5.0763503403        3.5899125750        2.7005803473
 H        -4.5146740106        2.0342501125        3.3857366863
 H        -4.3158892255        3.5429084468        4.3809776913
 H        -7.3904628027        2.6891824231        6.1598832386
 H        -5.9721916494        3.7251487428        6.1072822875
 H        -5.7204458133        1.8886285184        6.1771662571
 H       -11.7092051720        6.8559311675        7.0964829635
 H       -10.3307546342        7.1665093568        6.0353910968
 H       -10.5620309706        5.4889276760        6.8893076717
 H       -13.0401955113        4.3986182122        4.4117761349
 H       -13.4426221704        5.2485325526        5.9166746558
 H       -12.2761252509        3.9425486048        5.9819457540
 H        -8.8392157664        9.5789520873        1.8523337169
 H        -9.2497479887       11.3096107167        1.3403334036
 H        -8.7905269438       10.1807107459        0.0875579520
 H       -12.3546238066       11.0600249741        1.4982926678
 H       -12.5736253437       10.5451258590       -0.2722300257
 H       -11.5029419040       11.8786090843        0.3069234378
 H        -8.3182278626        4.4178767785       -4.8514286725
 H        -7.4186266432        3.3390355538       -3.8897146588
 H        -6.9677769161        5.0666679098       -3.7784537378
 H       -11.0064834597        4.9264442652       -2.6387100512
 H       -10.3298481143        3.9168717228       -4.0740618130
 H       -10.1459313333        5.6782125699       -4.0933840774
 H       -12.3343723710        1.3290371080        0.5586271635
 H       -13.3438943442        0.0640853688        0.1706351269
 H       -12.7054128219        1.2241701021       -1.1095949699
 H       -11.0159045283       -1.0581031683        1.5575422555
 H       -10.3464930014       -2.0745397126        0.3575699712
 H       -12.1050661715       -1.9074926763        0.4985296755
 H       -11.7435471466       -2.2852124221       -6.7314284690
 H       -11.5443043712       -1.2391175584       -5.2820871904
 H       -11.6337894023       -2.9209444333       -5.0529223636
 H        -8.4572258721       -3.9125455760       -7.2044340467
 H       -10.2796295460       -4.1441288403       -6.9517095746
 H        -9.0738511413       -4.6047890883       -5.7039547048
 Na       -9.4249862208        3.4764997158        1.6471412406
