117

 C        -8.6537500155       -1.6822060372       -8.2842671503
 C        -9.2632941484       -1.3500963016       -6.8635461142
 O        -9.3345148556       -0.1509012320       -6.4380828137
 C        -9.6785133972       -2.5006390878       -5.9388673433
 C        -8.7827859041       -2.2097299609       -4.5469076970
 O        -7.9412799501       -2.9779800979       -4.2024764231
 C        -9.1868423852       -1.0017106551       -3.5322899411
 C       -10.0651250795       -1.6349636710       -2.5186123526
 C       -10.8676558509       -0.4413223139       -1.9341258629
 O       -11.4844498922        0.2769716645       -2.7025623752
 C       -11.0148842735       -0.0734628806       -0.2618007101
 C       -10.0121573356        0.9268124298        0.2748422219
 O       -10.3121342286        1.5450464355        1.2690883444
 C        -8.6489344316        1.0671187060       -0.4491220089
 C        -8.9238511234        1.9116575112       -1.6581063429
 C        -8.6782394839        3.4196394545       -1.4818840884
 O        -8.5912323975        3.8775694101       -0.3514814179
 C        -8.8097708382        4.4695513957       -2.7638178134
 C        -8.4798517937        5.9382792554       -2.0257106690
 O        -7.3421229921        6.3843187898       -2.0560168682
 C        -9.5952172496        6.6463242096       -1.2441159935
 C        -9.3590144011        8.0700092803       -0.7559400676
 C       -10.6571666889        8.6169810496       -0.2970465323
 O       -11.7474690968        8.2445754236       -0.7544951597
 C       -10.6723716840        9.7398715120        0.7541574456
 C       -11.1943746150        8.7754563078        1.9639031144
 O       -10.4414910886        8.0959307789        2.6158005227
 C       -12.6702626989        8.6846894018        2.2739225691
 C       -12.9772569552        7.3648396075        2.9672261905
 C       -12.2224348628        7.2641026189        4.3111095083
 O       -12.2866955432        8.2333960989        5.0428850450
 C       -11.5457101614        5.9443131787        5.0460969469
 C       -10.3669282302        5.5611712717        4.0587617044
 O       -10.6470903869        4.7738268157        3.1464773624
 C        -8.9855463712        6.1286813467        4.3571703311
 C        -8.0585194392        4.9568977654        4.9136495911
 C        -7.2259120101        4.2311249101        3.8111479035
 O        -7.1431966048        4.6871208316        2.7346150855
 C        -6.3472604483        3.0006985937        4.2561547284
 C        -7.1142944158        1.7519853321        3.5538866247
 O        -7.7746062029        1.9932377261        2.5440489142
 C        -7.0592291587        0.3878204444        3.9976856798
 C        -4.9904998038        3.0341237358        3.4881700718
 C        -6.3579115674        2.5507251696        5.7776497327
 C       -11.2070082162        6.3617453895        6.5706608334
 C       -12.4902572930        4.6824062831        5.0143100321
 C        -9.2808458988       10.4675387867        1.0023856781
 C       -11.6701435270       10.8689930518        0.3341206302
 C        -7.8292319775        4.0606566411       -3.8483856853
 C       -10.2043653362        4.5196527383       -3.4691068217
 C       -12.4334048694        0.6660547496       -0.2297528551
 C       -10.9897626823       -1.3854960679        0.4675798242
 C       -11.1792953531       -2.3301266111       -5.5895944552
 C        -9.4309211629       -3.9104896502       -6.2359196824
 H        -8.5792467925       -0.8428286338       -8.9316729488
 H        -9.3322149196       -2.5117218261       -8.5555150235
 H        -7.7195501995       -2.1434167171       -8.1170594971
 H        -9.7553555562       -0.2343811276       -4.0269705308
 H        -8.2333387684       -0.6547336086       -3.0981693628
 H        -9.4559983791       -2.1365814117       -1.7700523288
 H       -10.5259286079       -2.4874059708       -2.9803944560
 H        -8.4070067658        0.0739319265       -0.8210266441
 H        -7.8618950911        1.4244137336        0.1417672449
 H        -9.9259201317        1.8007300481       -2.0124827929
 H        -8.3739545381        1.4225308005       -2.4063749973
 H        -9.9358633966        5.8783609148       -0.4175976035
 H       -10.5057237298        6.7715452887       -1.9165825258
 H        -9.0260747013        8.6242456310       -1.7117038689
 H        -8.5821571864        8.0692267517        0.0586408755
 H       -13.1306402265        8.7150750554        1.1371820909
 H       -13.0102619978        9.6346545447        2.8349849393
 H       -12.7683797636        6.5524159859        2.3392208718
 H       -13.9965279211        7.3710544060        3.2626830283
 H        -9.0270732067        6.8930204473        5.1547239561
 H        -8.6290048660        6.5376261093        3.4274237143
 H        -8.6849147303        4.2433057458        5.4872193762
 H        -7.3434025108        5.3758332742        5.6683147164
 H        -6.9874602361       -0.3119979661        3.2104482430
 H        -7.9300655001        0.0884086577        4.6256465988
 H        -6.1754661125        0.2769819840        4.6050203960
 H        -5.2884221315        3.3276422627        2.4599870318
 H        -4.4290087223        2.1239105931        3.4052822602
 H        -4.3374316296        3.7546233425        4.0074435087
 H        -7.4128985048        2.6512800298        6.1891610124
 H        -5.7241932349        3.2322067347        6.4299828031
 H        -5.9804807097        1.5558056675        5.9081426354
 H       -12.1550008256        6.4857729779        6.9117005087
 H       -10.7780785761        7.3075680758        6.6387373502
 H       -10.7776753975        5.5765626207        7.1544841199
 H       -12.7529235713        4.3430267298        4.0125718941
 H       -13.4083970376        4.9135937532        5.5374101258
 H       -12.0512873759        3.8738861010        5.6319102466
 H        -8.8386928059       10.2483479652        1.9364523105
 H        -9.3857428871       11.5457596049        0.9653530737
 H        -8.6136993783       10.2481154695        0.1890262403
 H       -12.0664693146       11.2373509644        1.2267122218
 H       -12.3598217548       10.3954152382       -0.2783717118
 H       -11.3102123784       11.7697611344       -0.1694351630
 H        -8.1867083216        4.2287082529       -4.8639139337
 H        -7.6326037574        2.9494685080       -3.8317116387
 H        -6.9656709289        4.6491974734       -3.5908368176
 H       -11.0757624914        4.1901769975       -2.9439132127
 H       -10.0390886815        4.0008649812       -4.4109194344
 H       -10.3342663980        5.5894004418       -3.7775792747
 H       -12.5945398903        1.2544017668        0.7158669082
 H       -13.1757223083       -0.1600231813       -0.1895025316
 H       -12.6000616706        1.2407899677       -1.0724738980
 H       -10.4009692776       -1.2523034222        1.4041226108
 H       -10.4742777025       -2.2325633750       -0.0623039709
 H       -12.0216454672       -1.7099913143        0.6848112086
 H       -11.8524021052       -2.0025602046       -6.4109437983
 H       -11.3372285310       -1.6297831327       -4.7762881990
 H       -11.6126798117       -3.2294721450       -5.1257023140
 H        -8.3758600792       -4.1864368543       -6.2262479610
 H        -9.9053247165       -4.0777090299       -7.1930369618
 H        -9.9962546964       -4.5804594822       -5.5604901494
 Na       -9.1941924450        3.5493038467        1.6061600068
