117

 C        -9.0687084591       -1.5404632349       -7.9757149752
 C        -9.6091686712       -1.2813227975       -6.5822011990
 O       -10.0797427623       -0.2925891570       -6.1549942282
 C        -9.7287296789       -2.5398282740       -5.5599246965
 C        -8.8159536842       -2.2847638858       -4.2954510451
 O        -7.9592480038       -3.0887470386       -3.8833110048
 C        -9.1666630553       -0.9914499860       -3.5616539510
 C       -10.0629523039       -1.3802894064       -2.2712125874
 C       -11.0228421929       -0.2318150823       -1.8365043215
 O       -11.5562816686        0.5513612129       -2.5841020394
 C       -11.0749981497       -0.1218219964       -0.2524123428
 C       -10.0457336854        0.9194680025        0.2417648637
 O       -10.1975114479        1.5103226776        1.3094769227
 C        -8.6705803416        1.0706187253       -0.5281122715
 C        -8.5974033125        2.0163044934       -1.8180482316
 C        -8.5664062711        3.4688315996       -1.5175816453
 O        -8.6673710617        3.9481642938       -0.3846755379
 C        -8.8104952254        4.3170826133       -2.7469005652
 C        -8.5141780894        5.7713526753       -2.2418501341
 O        -7.3841725415        6.0837945788       -2.3265904755
 C        -9.6674106817        6.5312288559       -1.4989231004
 C        -9.0971734302        7.7763963161       -0.6927588634
 C       -10.3887763433        8.6432856103       -0.4482335732
 O       -11.2628744822        8.6500926107       -1.2795045223
 C       -10.5886242432        9.5874187613        0.7435459679
 C       -11.1029181367        8.6830869667        1.8679933317
 O       -10.2802627118        8.2347630795        2.6365483569
 C       -12.6331840459        8.5374032046        2.0237753240
 C       -13.0010933849        7.4284347214        2.9426632151
 C       -12.3392603760        7.4043943067        4.2846209237
 O       -12.0654887112        8.4072365055        4.8755683306
 C       -11.8094836676        5.9402346583        4.7056224690
 C       -10.4631695746        5.7756457031        3.8693150426
 O       -10.5616457729        5.1312038378        2.8447095793
 C        -8.9466975293        6.1425937063        4.3411449469
 C        -8.1639475831        5.0132949223        4.9835060300
 C        -7.2349757196        4.2578804289        4.0064178126
 O        -6.9639493564        4.8430628597        2.9121680124
 C        -6.4551196697        2.8928420381        4.1669203736
 C        -7.2465690093        1.8147173985        3.3106565849
 O        -7.6176410847        2.0108509298        2.1834830015
 C        -7.3132341155        0.3334531971        3.8440885599
 C        -5.0498539673        3.0067242946        3.5509469502
 C        -6.2135338050        2.7412438728        5.7221578585
 C       -11.4413834155        6.0020097428        6.1845181834
 C       -12.9085114326        4.8131222502        4.4128680218
 C        -9.2540152792       10.2987680699        1.2711867095
 C       -11.6269093157       10.6810929394        0.3676001854
 C        -7.5415993480        3.8647051000       -3.6179933063
 C       -10.1800297696        3.9797115721       -3.2656027711
 C       -12.5011807113        0.3633073525        0.0765246996
 C       -10.8112812480       -1.4995130373        0.6352038252
 C       -11.3031631030       -2.3911919937       -5.1851514577
 C        -9.3825588368       -3.9186860729       -6.2090282452
 H        -8.8230926883       -0.4328132448       -8.2225805387
 H        -9.6653375511       -2.2658246736       -8.5143059801
 H        -8.0304564011       -1.9471649750       -7.7874319246
 H        -9.7449015330       -0.3578565962       -4.3161413017
 H        -8.2078973468       -0.5211544447       -3.2799871278
 H        -9.2665679132       -1.6777693933       -1.5368898554
 H       -10.6367865056       -2.3400411643       -2.4144077562
 H        -8.3509849351        0.0273486564       -0.7090885352
 H        -7.8444267399        1.5036348973        0.1965462145
 H        -9.5311129373        2.0316342859       -2.4600771891
 H        -7.8156321487        1.4700171140       -2.4532877050
 H       -10.1973378632        5.7986526456       -0.9883174707
 H       -10.3475923323        6.9198289280       -2.2749889053
 H        -8.5583322699        8.2321415668       -1.4797299446
 H        -8.4082529254        7.4362028248        0.0621918812
 H       -13.0023334516        8.4452107681        1.1146334443
 H       -12.9059128088        9.5021054418        2.3627053699
 H       -12.7165139116        6.4158009324        2.3982961783
 H       -14.1339957478        7.4540467418        3.0344443043
 H        -8.9715094027        6.8373057668        5.1810059194
 H        -8.3338422398        6.4946708589        3.5049964368
 H        -8.6568988675        4.2693496420        5.6674513755
 H        -7.4501138921        5.5967808920        5.6124118269
 H        -6.9958377391       -0.3611365595        3.0261049311
 H        -8.3124151909        0.1290981607        4.0131968797
 H        -6.7020322449       -0.1175273913        4.6236884197
 H        -5.1075608291        2.8641234689        2.5407841578
 H        -4.3677745515        2.1782119963        3.8438885702
 H        -4.5834086536        3.8716138014        3.9784916586
 H        -7.1413882832        2.6350890195        6.3191145208
 H        -5.7764726372        3.6577716876        6.1072339410
 H        -5.3915410719        1.9435631239        5.9701977902
 H       -12.3757044855        5.9073316072        6.9560923016
 H       -10.9557291374        6.9909508089        6.3211622450
 H       -10.5734516129        5.2904552145        6.3045460190
 H       -13.1540012333        4.8223009615        3.3747969364
 H       -13.8092576229        4.9604181876        5.0194428993
 H       -12.5586150598        3.8568976103        4.6870804382
 H        -8.8522116905        9.6599233963        2.1383892982
 H        -9.4320281821       11.1562295819        1.8789409247
 H        -8.5105933718       10.5946388785        0.5603222901
 H       -11.3381376341       11.6850757231        0.7255570424
 H       -12.6717495791       10.3195383056        0.5292894645
 H       -11.6737513847       10.7798697539       -0.6836850512
 H        -7.1912447325        4.8343442905       -4.0572221681
 H        -7.8656653604        3.3628056865       -4.4699151432
 H        -6.7476586103        3.3641300113       -3.0180453528
 H       -10.8190967087        3.9352955202       -2.3593635440
 H       -10.3110639680        3.0527264564       -3.7714543865
 H       -10.5553982365        4.8273617058       -3.8037075453
 H       -12.7692032873        0.0165840640        1.0272797751
 H       -13.1851938251       -0.0669394579       -0.6990128173
 H       -12.6974686925        1.4986553914       -0.0114962671
 H        -9.9114633702       -1.5148104467        1.2866507579
 H       -10.7517155358       -2.3607292428       -0.0545333137
 H       -11.7748956936       -1.7085663268        1.1473310559
 H       -11.8212256450       -2.7464087894       -6.0422503441
 H       -11.7607686061       -1.4420078385       -4.9678669388
 H       -11.5604769225       -3.0016764009       -4.3505058898
 H        -9.0323942969       -4.4997495286       -5.3736242877
 H        -8.6272242903       -3.9659559923       -7.0311088340
 H       -10.2590960211       -4.4105364374       -6.4620972521
 Na       -8.8876596763        3.9393429518        1.9185466112
