117

 C        -9.1621618599       -1.5169697291       -7.8239265725
 C        -9.8053011424       -1.2784800440       -6.4698245315
 O       -10.3750757030       -0.2731447995       -6.0601126705
 C        -9.8917243753       -2.5845235357       -5.5155756993
 C        -8.9554239556       -2.2693124257       -4.2798190948
 O        -8.1362016311       -3.1135769669       -3.9706328014
 C        -9.1654873443       -0.9057307513       -3.4017364619
 C        -9.9725708390       -1.3310246936       -2.1291514533
 C       -10.9460045311       -0.2215410460       -1.6814961227
 O       -11.5071709540        0.6082284566       -2.3798796694
 C       -11.2001885636       -0.1036905290       -0.1599447099
 C       -10.0118572931        0.9723095280        0.2911030746
 O       -10.1692435935        1.6912589892        1.2488029180
 C        -8.6663521325        0.8672119279       -0.4217323499
 C        -8.5127921310        1.8431735676       -1.6017330089
 C        -8.6477950750        3.2782557231       -1.3537364842
 O        -8.6826996022        3.8849221333       -0.2816328250
 C        -8.6835236550        4.2132850209       -2.7481423627
 C        -8.4759341026        5.7004024741       -2.3389503136
 O        -7.3872848327        6.2573558639       -2.4378305261
 C        -9.5736191699        6.5435413287       -1.6406113607
 C        -9.1616259867        7.6732666250       -0.6641738689
 C       -10.2376482021        8.7464701505       -0.6645972147
 O       -11.0396371122        8.7830206280       -1.6007164069
 C       -10.5119480512        9.5917302497        0.6587926942
 C       -11.0846635885        8.7158671541        1.8357565568
 O       -10.3821636502        8.1894870636        2.6352574841
 C       -12.5651904129        8.5104255032        1.8726248273
 C       -13.0563034453        7.4844077612        2.7327533607
 C       -12.1899322522        7.3722489657        4.0831813440
 O       -12.0170958542        8.2509748655        4.9090416871
 C       -11.7335188756        5.9001749169        4.5841172979
 C       -10.4973546150        5.6859728725        3.8557328541
 O       -10.4736770038        5.3052392671        2.6760251650
 C        -9.1956123271        6.1968176837        4.4777179384
 C        -8.2349323043        4.9942044563        4.9765055304
 C        -7.2236509454        4.3399421106        3.8988802397
 O        -6.8739848431        4.9291325311        2.9289489555
 C        -6.4480839828        2.9114453384        4.2217678803
 C        -7.1250468846        1.7511429863        3.3559345193
 O        -7.4504147386        2.0611938801        2.2338810706
 C        -7.3970528445        0.3800811844        3.8734888388
 C        -5.0785915642        3.0616614395        3.4651508297
 C        -6.3636326006        2.6942702965        5.7569565589
 C       -11.4512242400        5.8240670946        6.1950001191
 C       -12.9749598914        5.0585346390        4.1900838589
 C        -9.1765941851       10.0796801121        1.3109684629
 C       -11.5193814898       10.7758376894        0.3926555689
 C        -7.5700576479        3.9026626182       -3.8606915745
 C       -10.0751613474        3.8928695106       -3.4038654678
 C       -12.6611311328        0.3079425096        0.3856213445
 C       -10.7449814701       -1.3999575433        0.5387341474
 C       -11.2219087544       -2.7670522284       -4.9155019712
 C        -9.3502753739       -3.8270819209       -6.1536662675
 H        -8.9041530397       -0.4886996816       -8.1639038332
 H        -9.9183792013       -2.1700297524       -8.2610291600
 H        -8.2158508012       -2.0588392257       -7.7623617642
 H        -9.6464517629       -0.0639454546       -3.9524396019
 H        -8.1595453145       -0.6291041418       -3.0983218982
 H        -9.1444889737       -1.8078974404       -1.5017348736
 H       -10.6936849313       -2.1247638424       -2.3186066949
 H        -8.5013112124       -0.1748103102       -0.6909858065
 H        -7.8281759486        1.0962665957        0.2993735462
 H        -9.0819825450        1.6448852728       -2.4661245859
 H        -7.4706322461        1.6242434264       -1.9006434866
 H       -10.2909417685        5.8936546582       -1.1872704086
 H       -10.0585764543        6.8762901297       -2.5243729958
 H        -8.1493867784        7.9280455497       -0.7811896785
 H        -9.2497640524        7.1196473020        0.2394323450
 H       -12.9441374668        8.5552946806        0.8172789661
 H       -12.8798220325        9.4607917515        2.1876225165
 H       -12.9644794651        6.5067971452        2.1735542488
 H       -14.1369116313        7.7044924136        2.9016421434
 H        -9.4579137681        6.7961050021        5.4384231701
 H        -8.6097520787        6.7609592740        3.7349888808
 H        -8.7862493966        4.1345679251        5.2282089210
 H        -7.7336261691        5.3021325879        5.8416651094
 H        -6.9382207163       -0.4234369823        3.2613711470
 H        -8.4792397117        0.1598971243        4.0209598272
 H        -6.7660989487        0.1336692854        4.7656043238
 H        -5.3212067647        2.9999865044        2.4393870882
 H        -4.5600760945        2.0875084697        3.5523711138
 H        -4.3612120733        3.7959276720        3.8764673964
 H        -7.4281696098        2.4728754232        6.1376821547
 H        -6.0259911970        3.5186861289        6.3926322364
 H        -5.6569689146        1.8584076653        5.9413305513
 H       -12.3019186830        5.7377517355        6.9009691046
 H       -10.8014598255        6.6615677588        6.4907681423
 H       -10.6364035042        4.9692609773        6.0824810700
 H       -13.1429584179        5.1270314156        3.1379313826
 H       -13.8695086483        5.3697442380        4.7634022457
 H       -12.8572386686        4.0053712854        4.3804906490
 H        -8.5332605908        9.1962120944        1.5916620830
 H        -9.2727433319       10.4317099433        2.3461632799
 H        -8.6182703844       10.8971119799        0.7351526202
 H       -11.0309948475       11.7529005466        0.6666794875
 H       -12.5233058748       10.5925420882        0.8168659520
 H       -11.8106704512       10.8727241333       -0.6851229546
 H        -6.9500809384        4.7950554504       -4.0926556427
 H        -8.1410106411        3.7857591062       -4.7584783193
 H        -6.9999368732        3.0274819805       -3.6614832213
 H       -10.8069277272        4.2291610615       -2.6695069275
 H       -10.2955185195        2.8352386127       -3.4500515225
 H       -10.2826214646        4.5175862183       -4.3441429368
 H       -12.8731866049       -0.0951815493        1.3648201887
 H       -13.4568893582        0.1247217540       -0.4022118969
 H       -12.6944364793        1.3396573149        0.4410414572
 H        -9.7045015173       -1.5348427394        0.7288875517
 H       -11.0688549027       -2.1729623585       -0.1269823878
 H       -11.3110167297       -1.6101008533        1.3838026143
 H       -11.9401221395       -3.4125975185       -5.4015264970
 H       -11.7090194617       -1.8072187300       -4.8890524178
 H       -11.1526619214       -3.0320631886       -3.8661558360
 H        -9.6615365463       -4.6337736162       -5.4449660460
 H        -8.2271548015       -3.8638722115       -6.2942673763
 H        -9.9132256691       -4.0712320742       -7.0346115234
 Na       -8.8432227876        4.0701188928        1.8836645741
