117

 C       -14.2142186461       -0.8545304674        5.9311952287
 C       -13.0442126066       -0.8079896620        4.9690664737
 O       -12.1184757279       -0.0648066956        5.1234008995
 C       -13.0316679912       -1.9520958534        3.7548443901
 C       -11.8572052996       -1.7298893731        2.7494148860
 O       -12.1876090611       -1.5493266917        1.5625203692
 C       -10.3216589579       -1.7074035925        3.2032721181
 C        -9.4715267253       -1.1930835916        2.0087669569
 C        -8.0431595346       -1.7804838800        2.1218518900
 O        -7.8663872781       -2.9522551635        2.0411070023
 C        -6.7765008061       -0.8100280030        2.2841880664
 C        -7.0814345285        0.5136510868        2.9450285176
 O        -7.3584206650        0.6592474755        4.1340712722
 C        -7.0792721690        1.8597489398        2.0458886056
 C        -6.9239718094        3.1914817487        2.7661319048
 C        -7.9092923890        4.2774788087        2.1908511794
 O        -7.5460976806        5.1909792763        1.4886903273
 C        -9.2994489963        4.2674512537        2.8498489670
 C       -10.3237799004        4.1244055970        1.6596417457
 O       -10.3982399253        5.0388045224        0.8040943880
 C       -11.1861135446        2.8887919173        1.5677389221
 C       -11.7533563241        2.6871857057        0.1673523357
 C       -10.4837455629        2.6575799367       -0.7945246730
 O        -9.4169631152        2.4453748223       -0.2614886805
 C       -10.6865042821        2.7330251169       -2.3925392434
 C        -9.7859033212        3.8929162081       -2.9894451896
 O        -9.1229814105        4.5472469863       -2.2411374019
 C        -9.5635287216        4.0556692071       -4.5320156805
 C        -9.3175151091        5.5031922109       -4.9937497870
 C       -10.5810128902        6.2052028078       -5.3333456431
 O       -11.6684867379        5.8479036213       -4.8808268866
 C       -10.4163458658        7.6117263852       -5.8928772068
 C       -10.1959382441        8.5426858894       -4.6990880972
 O        -9.1049283875        8.9873516154       -4.3943242751
 C       -11.3712425394        8.8327070660       -3.7166902314
 C       -10.9878587114        9.4390552670       -2.3470460953
 C       -10.0747558408        8.5889476347       -1.4493313343
 O       -10.5217454551        7.4429039269       -1.2697777954
 C        -8.8122616691        9.1811334931       -0.8198375382
 C        -7.6356848088        8.4672189834       -1.6692063057
 O        -7.7377305007        7.2569419813       -1.7000782420
 C        -6.4881618709        9.1436512080       -2.3604323714
 C        -8.6394957046       10.7196800714       -0.8283320970
 C        -8.7047666273        8.7240002235        0.6125910061
 C        -9.2172370481        7.7882695804       -6.8284682436
 C       -11.7357716243        8.0632696343       -6.6552171066
 C       -10.0527006711        1.3727856446       -2.8568036551
 C       -12.1867729093        2.7491510211       -2.7829635622
 C        -9.5689038350        3.3774606747        4.0177284286
 C        -9.4314775500        5.7664589805        3.3482018684
 C        -5.6213250285       -1.5734796162        3.0528372107
 C        -6.1883329973       -0.6629742926        0.8405059675
 C       -12.9609937313       -3.4178601094        4.4205297696
 C       -14.4277505133       -1.8289810443        2.8574585211
 H       -14.8736141062       -1.7047085297        6.0013185157
 H       -14.7624201546       -0.0071065579        5.8482595060
 H       -13.8631950126       -0.7681934952        6.9027069534
 H       -10.0889309124       -2.6715162270        3.5071372081
 H       -10.2484229659       -1.1089764932        4.1668697939
 H        -9.3401514044       -0.0554956354        2.0550108244
 H        -9.8211724023       -1.5395204526        0.9540090001
 H        -7.9340877571        1.6600902757        1.3666680435
 H        -6.2117113624        1.7294858061        1.3995360240
 H        -5.9225883274        3.5998180269        2.6035258339
 H        -7.0317268102        2.9985498881        3.8967218347
 H       -12.0024116702        2.9356412130        2.2939393980
 H       -10.4293841267        2.0667423928        1.8444392242
 H       -12.3420767883        3.6302711057        0.0092765995
 H       -12.3952705333        1.7978520730        0.2175872177
 H       -10.5099016406        3.7209094358       -4.8763374333
 H        -8.8349439727        3.4434889628       -5.0002081056
 H        -8.6270709602        5.4907240166       -5.8027572380
 H        -8.8973368827        6.0852979087       -4.1897831829
 H       -12.0476328513        8.0286805817       -3.6828239255
 H       -11.9267702940        9.5370545877       -4.2198039365
 H       -11.8804905692        9.6676606934       -1.8019642095
 H       -10.5123043199       10.3958311873       -2.5932018240
 H        -6.7530917246       10.0567738086       -2.9147587502
 H        -5.9005220478        8.4467873948       -2.9807736808
 H        -5.7769237554        9.5107652795       -1.5597797023
 H        -9.5183136611       11.1533870145       -0.3137905952
 H        -8.5540334523       11.1685041850       -1.8547575464
 H        -7.7676147280       11.0456402823       -0.4482216036
 H        -9.3779682781        9.2967827089        1.2859309228
 H        -7.7049570098        8.8775467070        1.0095278541
 H        -8.8380864411        7.6034016989        0.7524713263
 H        -9.2781203413        6.9642245714       -7.6323517102
 H        -8.2907867869        7.5379045091       -6.3236851574
 H        -9.2676564356        8.7259885781       -7.3964249439
 H       -11.6304244232        8.1902504553       -7.7230766302
 H       -12.1936797147        9.0318618309       -6.3463596262
 H       -12.4768334141        7.2207646609       -6.5170160597
 H       -10.7472597493        0.7202219657       -2.4171613404
 H        -9.0857141362        1.2355198553       -2.3874054641
 H       -10.1195101424        1.3055657005       -3.8997824499
 H       -12.6091832570        3.7714691513       -2.7443911492
 H       -12.6912124278        2.0477965858       -2.0648359269
 H       -12.3477411246        2.4113259435       -3.7538560325
 H        -9.2632485299        2.3072314670        3.8846578522
 H       -10.5541695089        3.1658401437        4.2699869770
 H        -9.1017682394        3.6172423401        4.9588438142
 H        -9.2584916929        6.5315623314        2.5773467918
 H        -8.5628121033        5.9323238564        4.0384103347
 H       -10.3804912105        6.0698597771        3.8069316917
 H        -5.5947223537       -2.6358302153        2.6835488324
 H        -5.7487717360       -1.4620039523        4.1252404287
 H        -4.6278872428       -1.2173968104        2.8036264704
 H        -6.8947716774       -0.0713262551        0.2514968167
 H        -6.2360461200       -1.7017423536        0.4027988755
 H        -5.1728124670       -0.2239565444        0.9069242048
 H       -12.0031798426       -3.5177055018        4.9899746850
 H       -12.9571221721       -4.1183428775        3.5732803758
 H       -13.7868970917       -3.5936817524        5.1634891094
 H       -14.3561246650       -0.7528909292        2.5662559778
 H       -15.2425268150       -1.9934131998        3.5772349117
 H       -14.5025332804       -2.5173766372        1.9693099308
 Na       -8.9651172804        6.0164234193       -0.3163789897
