117

 C        -9.2828028951       -1.3708632682       -7.7315016290
 C       -10.1166048177       -1.3649808253       -6.4090084479
 O       -10.5602510033       -0.2385545257       -6.0866308456
 C       -10.0413193242       -2.6058029823       -5.3310971519
 C        -8.9711236905       -2.2227199987       -4.2215309957
 O        -8.1809132408       -3.0329677880       -3.8914531955
 C        -9.2204001035       -1.0296943650       -3.3754483403
 C       -10.0632966516       -1.2964391490       -2.1298325817
 C       -10.9255987703       -0.1791299677       -1.5361403152
 O       -11.4218495887        0.6348213524       -2.3074523241
 C       -11.1373232686       -0.0777188933        0.1178760511
 C        -9.9993414679        0.9937563112        0.5221001265
 O       -10.2455804164        1.9818351216        1.1669816946
 C        -8.6236928702        0.8170687482       -0.1505260786
 C        -8.3422565018        1.6583749587       -1.4397521348
 C        -8.5808558729        3.2396616942       -1.4553478518
 O        -8.7087829654        3.8074576025       -0.4274921642
 C        -8.6061440554        4.1704878431       -2.7126172845
 C        -8.3426020323        5.7575623544       -2.3014896135
 O        -7.3085095494        6.3869515751       -2.5725377130
 C        -9.6134777353        6.4987841846       -1.7523124547
 C        -9.3571912361        7.4427840064       -0.6439027794
 C       -10.2577202426        8.7090122210       -0.7486275198
 O       -10.8080822254        9.0691020826       -1.7714000795
 C       -10.3249267902        9.6522090613        0.6454194853
 C       -11.0755483904        8.7103498216        1.6961156261
 O       -10.4791182314        8.0695620521        2.5499389957
 C       -12.7432360277        8.6169410003        1.8114016484
 C       -12.9927896542        7.4645889799        2.7956150750
 C       -12.1802847424        7.3603522721        4.1438898695
 O       -12.0792431710        8.3314238276        4.8244779991
 C       -11.6744256017        5.8348603450        4.4674669822
 C       -10.4299591466        5.6234642399        3.7105925706
 O       -10.4643969963        5.3276879343        2.5235412834
 C        -9.1396116980        6.0303873817        4.4527744389
 C        -8.2382645897        4.7910028885        4.9471464025
 C        -7.1373446716        4.4430683126        3.9180310900
 O        -6.9476192945        5.0772279177        2.9375176994
 C        -6.5258947895        3.0577796489        4.2634350281
 C        -7.1799602089        1.8949358401        3.4766091872
 O        -7.3674757715        2.0830371094        2.2520610721
 C        -7.3760294377        0.4947003098        4.0022443106
 C        -5.0683340355        3.1273367652        3.6039885837
 C        -6.4868264396        2.5947550327        5.6827463148
 C       -11.7118581789        5.6839266777        6.0358968659
 C       -12.9356545781        4.9095150796        4.1466847165
 C        -8.9663114619       10.0425357251        1.1324560141
 C       -11.1558767632       10.9239599947        0.2890571537
 C        -7.6119632273        3.8240224189       -3.9114124973
 C       -10.0431570834        3.9794241848       -3.4303914456
 C       -12.5197153420        0.3267875629        0.5029828752
 C       -10.7537592882       -1.4542454226        0.6970406640
 C       -11.3687182437       -3.0971151773       -4.6931437449
 C        -9.3606214111       -3.8509122850       -6.1418797338
 H        -9.1233492051       -0.3926543726       -7.9069390637
 H        -9.8952599109       -2.0358984902       -8.3475936700
 H        -8.2951370166       -1.7560848427       -7.6863362326
 H        -9.7067878652       -0.2598499286       -3.9533127575
 H        -8.2336986236       -0.6463061727       -3.0976280625
 H        -9.2701266854       -1.7009246445       -1.5322927845
 H       -10.8493970210       -2.0516330453       -2.2642397997
 H        -8.4385697791       -0.2342535420       -0.3788517669
 H        -7.9308260862        0.9914006849        0.5692364762
 H        -8.7713139336        1.1567120815       -2.2758602673
 H        -7.3351130840        1.5183109356       -1.6004526664
 H       -10.4364377921        5.7560120047       -1.5456280241
 H        -9.9612537737        6.9771113826       -2.6556234157
 H        -8.3241880642        7.8881711028       -0.8457211888
 H        -9.2931068474        6.8750364666        0.3003712906
 H       -13.2077499364        8.5067876808        0.7165675097
 H       -13.0989474275        9.7033790432        2.0472448916
 H       -12.9181392717        6.5896631694        2.2428652583
 H       -14.0142972290        7.5474416782        3.1422763367
 H        -9.4651259069        6.6000473909        5.3180745428
 H        -8.4438364123        6.5798533197        3.7615917182
 H        -8.7571394183        3.9064953818        5.1436785629
 H        -7.7348289069        5.0384902704        5.8392238304
 H        -6.9061459237       -0.3040429635        3.4625065547
 H        -8.5223137424        0.2469167155        4.0991232976
 H        -6.8510306581        0.2688199395        4.9321472484
 H        -5.2089443020        3.3728586099        2.4700138912
 H        -4.6994027818        2.1273808554        3.4887127280
 H        -4.3423236503        3.6388209808        4.2323332312
 H        -7.5270417748        2.3727493280        6.0584570503
 H        -6.0485520045        3.2954741425        6.4972694491
 H        -5.8615623735        1.7400602613        5.6700388686
 H       -12.6835214243        5.6774327602        6.3605580564
 H       -11.2302427901        6.5728169145        6.5308055142
 H       -11.1451514428        4.8592785706        6.2577341756
 H       -12.8659644917        4.4765901988        3.1202099310
 H       -13.8720484058        5.4027730701        4.3260525741
 H       -12.9243243008        3.9904421853        4.7948923251
 H        -8.1623262783        9.4908628448        0.7565220689
 H        -8.7036466534        9.9419525772        2.2341269723
 H        -8.8374829156       11.1269659779        0.8346932878
 H       -10.5205811540       11.8173934102        0.4025421131
 H       -12.0893530758       11.0400259997        0.8032110831
 H       -11.4981236347       10.9211086296       -0.8128207289
 H        -6.7226820220        4.3547442360       -3.8790257506
 H        -8.0705136705        4.0744698525       -4.9138974369
 H        -7.4795392651        2.7506510276       -3.8533549013
 H       -10.9572468431        4.3930722297       -2.9708157768
 H       -10.2737938427        2.8653076516       -3.3693850931
 H        -9.9729771203        4.3859839054       -4.4511768848
 H       -12.8917373484       -0.0326236099        1.4959554092
 H       -13.1357186578        0.1451481271       -0.2878701533
 H       -12.5630516603        1.3967272738        0.5094106520
 H        -9.8026770153       -1.7334252152        0.3426941638
 H       -11.4466052149       -2.2045820272        0.4497181793
 H       -10.6588318832       -1.5261598727        1.7519923930
 H       -12.0028257998       -3.6526632001       -5.4203782885
 H       -12.0342199982       -2.2754183035       -4.3957138902
 H       -11.2046226306       -3.7110364612       -3.7802420409
 H        -9.9237204435       -4.8139489785       -6.0514745517
 H        -8.3512415581       -3.9735502390       -5.8092968838
 H        -9.4144893697       -3.6444228916       -7.2868189618
 Na       -8.8112661701        4.0535158182        1.7253276717
