117

 C        -9.9188646462       -1.1328975711       -7.3134715403
 C       -10.7573123196       -1.5676680047       -6.1280012884
 O       -11.7374160217       -0.8629252942       -5.9132422402
 C       -10.3716754958       -2.9131583702       -5.2511097280
 C        -9.4737914873       -2.4607738114       -4.0133964468
 O        -8.3167242136       -2.7977321482       -3.9489608939
 C       -10.1478836230       -1.3702478601       -3.1640886438
 C       -10.4553076008       -1.6122051061       -1.6352538772
 C       -10.8436017283       -0.1851899594       -1.1283258819
 O       -11.1484858740        0.6396989702       -1.9657000373
 C       -10.8228030111        0.2474193582        0.3382871201
 C        -9.7933308856        1.3309131055        0.5614368616
 O       -10.1160507438        2.3340622209        1.1830701487
 C        -8.4984716926        1.0950254213       -0.1795350274
 C        -8.4696754787        1.9392381566       -1.5093681666
 C        -8.5991404485        3.4370069090       -1.5656980694
 O        -8.6137054508        4.2244282418       -0.6287052739
 C        -8.6686302043        4.0997585881       -3.1670429519
 C        -8.6315967880        5.5844131542       -2.7936421242
 O        -7.5581462041        6.0911593743       -2.5799711691
 C        -9.8374835146        6.4430632621       -2.3549088459
 C        -9.3987150281        7.1372233285       -1.0772666113
 C        -9.6932389491        8.7105736257       -1.0286205160
 O       -10.0340094149        9.1634677940       -2.0597154135
 C        -9.8767119700        9.4330686190        0.3746028169
 C       -10.6114181136        8.5994655482        1.4259841907
 O       -10.1375650095        7.6321402713        2.0303700781
 C       -12.0786273047        8.9776628581        1.8742214901
 C       -12.8258875669        7.7104921498        2.1854897124
 C       -12.4447685567        7.3721061988        3.6401922512
 O       -12.3851248774        8.2215757400        4.4284418542
 C       -12.0571039512        5.8047289537        4.0621058857
 C       -10.5657803763        5.4220748974        3.6521057462
 O       -10.3944370233        4.8252484996        2.5925405873
 C        -9.3409095056        5.9702506216        4.3706362616
 C        -8.5453739539        4.8289834651        5.0378647884
 C        -7.2712217652        4.5347474575        4.2849834845
 O        -6.9794028355        4.9523533897        3.1915052854
 C        -6.4290842570        3.2996371146        4.7362109814
 C        -6.9569528885        2.0617189874        3.9107652735
 O        -7.2419627939        2.3645855934        2.7112724782
 C        -7.1385479209        0.6851105627        4.5304341173
 C        -4.9809938709        3.4897798107        4.2541738245
 C        -6.3770808279        2.9832787465        6.2232907754
 C       -12.1936357876        5.7665996119        5.5534204670
 C       -13.0904464376        4.8521139796        3.4653124612
 C        -8.4200089554        9.7411405628        0.9719003577
 C       -10.5702897987       10.8347811593        0.1169987205
 C        -7.3013484011        3.7417591580       -3.8964704406
 C        -9.8752189441        3.4735320545       -3.8654026501
 C       -12.2001548673        0.7145251335        0.9368115729
 C       -10.2639444455       -0.7761787884        1.3471950301
 C       -11.6859533822       -3.6876637328       -4.8154565269
 C        -9.4410028874       -3.8545934873       -6.0720580042
 H       -10.3865553819       -0.1706060491       -7.4673876063
 H       -10.0468497114       -1.9648195574       -8.0441033643
 H        -8.9078118972       -0.7798690350       -7.1309442297
 H       -10.9671179616       -0.7999852579       -3.5062761579
 H        -9.3232985843       -0.6010550831       -3.1990419209
 H        -9.5231419388       -1.9886812055       -1.2608024866
 H       -11.4117439064       -2.1879450955       -1.4531362156
 H        -8.4012447132        0.0133922258       -0.3571717268
 H        -7.6416435668        1.4115151003        0.3496956731
 H        -9.1789522750        1.5456677225       -2.2411247275
 H        -7.5454649707        1.7991386716       -1.9693385931
 H       -10.6559676907        5.7624576887       -2.1480143551
 H       -10.2114818115        7.0643375182       -3.0809880380
 H        -8.3480452762        7.0362578486       -0.8770168453
 H        -9.8752322623        6.8069622800       -0.1956104131
 H       -12.5811908864        9.5909527815        1.0599622389
 H       -12.1251155307        9.8298119982        2.7138430368
 H       -12.5840461025        6.8441754213        1.6114640712
 H       -13.8771503738        7.9930229011        1.9628356068
 H        -9.6160821809        6.6869218557        5.1396018457
 H        -8.7035537944        6.5393123649        3.5599895071
 H        -9.0643478864        3.9641754094        5.3283363448
 H        -8.1765871858        5.2316579491        5.9410860970
 H        -7.3155907943       -0.1314961401        3.7877378397
 H        -8.1603097848        0.7195613059        5.0298956236
 H        -6.2821719215        0.3381657194        5.1804519985
 H        -4.9468956244        3.6348584826        3.1174853997
 H        -4.3797867547        2.6546276914        4.5885898509
 H        -4.6117443497        4.4409105242        4.6687695916
 H        -7.3452426449        2.8272888869        6.7446909855
 H        -5.8391651653        3.8659179926        6.7078973452
 H        -5.7565312013        2.0825774666        6.4225613841
 H       -13.2938959970        5.6349096564        5.8620786339
 H       -11.7866572181        6.6133482585        6.0965739114
 H       -11.6820739698        4.8986836845        5.8841050875
 H       -12.9396793833        4.5419141782        2.4161275351
 H       -13.9996981868        5.3560298367        3.5705777330
 H       -13.1393267041        3.9396772613        4.0711282349
 H        -8.3273808178       10.8112280116        1.0324278943
 H        -7.5237587387        9.3826407794        0.3781172741
 H        -8.0419569862        9.3148523825        1.9291360022
 H       -10.2843510250       11.3721190779       -0.7913470384
 H       -10.2384017998       11.6026424423        0.7953906029
 H       -11.6985515927       10.7496326716        0.0193863534
 H        -6.8492048120        2.8523485877       -3.6179685483
 H        -6.6205272841        4.5850244627       -3.5969040001
 H        -7.4094824234        3.9097701660       -4.9804109170
 H       -10.3572025415        2.5644340171       -3.4466391012
 H        -9.7299662782        3.2160778533       -4.9517389517
 H       -10.6693844113        4.1816444182       -3.9321558063
 H       -12.1527750878        1.6906603537        1.4712671149
 H       -12.3693075086        0.0018524264        1.6458489189
 H       -13.1495151686        0.6935285341        0.3594781717
 H        -9.1923662443       -0.8199754987        1.3852089420
 H       -10.6145000846       -1.7486252364        1.1088002048
 H       -10.4820302749       -0.5983396765        2.3912734682
 H       -12.2381383398       -4.1691612615       -5.5923862290
 H       -12.3877090494       -3.1470516752       -4.2307335649
 H       -11.3512372740       -4.5724503283       -4.3397461200
 H        -9.6205599535       -3.7514408048       -7.1658253916
 H        -9.5057595011       -4.8886148155       -5.8370022895
 H        -8.3789261747       -3.4857993373       -5.9591996081
 Na       -8.5649358709        3.9799876612        1.7129912647
