117

 C        -9.9512093887       -1.2536010710       -7.2110375334
 C       -10.9991910855       -1.5813935047       -6.1617175739
 O       -12.0086289415       -1.0597039572       -5.8413097125
 C       -10.4814965330       -2.9448032878       -5.3168259393
 C        -9.7211223281       -2.4486029155       -4.0677217212
 O        -8.4749386520       -2.7828382252       -3.8761858977
 C       -10.3255285506       -1.4368440158       -3.1028333968
 C       -10.4848982503       -1.6310388583       -1.5187604398
 C       -10.9105296639       -0.1893650318       -1.0090434596
 O       -11.2190726780        0.6075120143       -1.8598176684
 C       -10.7777799126        0.2376787300        0.5024478784
 C        -9.8453488819        1.5344267088        0.5485511155
 O       -10.0005033275        2.4481053385        1.3318802878
 C        -8.4774319669        1.4169991032       -0.1963609081
 C        -8.3782171568        1.9406226457       -1.6281407162
 C        -8.5272176285        3.4058546114       -1.7384621616
 O        -8.5452388821        4.1693026429       -0.7591181150
 C        -8.6068793216        4.0542422113       -3.0966286878
 C        -8.6126973891        5.5729553720       -2.8126087778
 O        -7.5665463275        6.1434562170       -2.7947875088
 C        -9.8755545296        6.4398893758       -2.4612875235
 C        -9.4965063905        6.9833043188       -1.0645068856
 C        -9.7856575471        8.6429564870       -0.9971369956
 O        -9.9375013854        9.3063088584       -2.0143456016
 C        -9.7246919161        9.4711470719        0.4076943535
 C       -10.4659299539        8.5936462982        1.3667084285
 O        -9.9571370415        7.5552780138        1.8340496829
 C       -11.9608381820        8.8503404168        1.6360393986
 C       -12.7338286289        7.6469458908        2.1342658964
 C       -12.4038970440        7.3961739047        3.6002777152
 O       -12.4397067398        8.2487361232        4.4876498510
 C       -12.2087239232        5.8420987465        4.0577368163
 C       -10.7690123603        5.5078242552        3.5128076985
 O       -10.6799305560        4.7172458062        2.5764325964
 C        -9.5415422761        6.0262125429        4.4032915218
 C        -8.6146044064        4.9971245153        5.2514370418
 C        -7.3599998688        4.4525320385        4.3797541815
 O        -7.0012717199        5.1383159045        3.4252805912
 C        -6.3121503739        3.2826945145        4.7754438980
 C        -6.8980449365        2.0771656655        3.9326811764
 O        -7.2216845708        2.0390353404        2.7661158172
 C        -6.9082760511        0.8290835853        4.8219845510
 C        -4.8709449598        3.5434766283        4.3673627003
 C        -6.4855470872        3.1228487163        6.3508629406
 C       -12.2789050201        5.7989688310        5.6267266275
 C       -13.1593906080        5.0123899737        3.1565715632
 C        -8.2025831309        9.6427270670        0.8397925523
 C       -10.4069577642       10.7467923227       -0.0294161443
 C        -7.2797154200        3.7270488752       -3.9597090164
 C        -9.7754815316        3.5834610556       -3.9113614722
 C       -12.2302468662        0.7016625905        0.9885234788
 C       -10.1666068256       -0.9317004839        1.4063588585
 C       -11.5585589871       -3.8846023236       -4.8365241934
 C        -9.5587333775       -3.7945768065       -6.1608173942
 H       -10.0820990475       -0.1781689796       -7.4996763871
 H        -9.9503717649       -2.0103929810       -7.9172617156
 H        -9.0412493292       -1.1473169409       -6.6607988012
 H       -11.3124622860       -1.1139679271       -3.3183732427
 H        -9.8019158374       -0.5225392963       -3.3675877160
 H        -9.6051369985       -1.9479243870       -1.0832096645
 H       -11.3634584918       -2.3196569165       -1.4354618523
 H        -8.2123461284        0.4272587232       -0.1272951195
 H        -7.6806469553        2.0655571607        0.3096060326
 H        -9.2215713532        1.6280777572       -2.1688116295
 H        -7.5310736305        1.5695082722       -2.1228386245
 H       -10.8321743663        5.9416386158       -2.4994782909
 H       -10.0006803953        7.2582521580       -3.2022154316
 H        -8.3696297488        7.0530037936       -0.9309742881
 H        -9.8784035065        6.5068348691       -0.0940980812
 H       -12.3187161233        9.1993962090        0.5969276629
 H       -12.1197590729        9.9004134743        2.1692291983
 H       -12.5736593463        6.7377969043        1.5953717478
 H       -13.7313730411        7.8988183369        2.0395560317
 H        -9.8632364473        6.7783331524        5.1083550105
 H        -8.9071025099        6.5765818784        3.6757948528
 H        -9.0882751057        4.1929153348        5.7199425967
 H        -8.2243115361        5.5977465461        6.0455935105
 H        -7.3106554727       -0.0958324794        4.2441546973
 H        -7.6163584428        0.9253942923        5.6134572340
 H        -5.8512078410        0.5675205554        5.1854232952
 H        -4.7204900492        3.4803316715        3.3430298945
 H        -4.2695889269        2.7589421206        4.9587399553
 H        -4.5580661611        4.5949909982        4.6047259955
 H        -7.5433621513        3.0232238936        6.6251393311
 H        -6.0764893256        4.0093412269        6.8117296742
 H        -5.9929518046        2.1963468147        6.8942446183
 H       -13.3018466540        5.7521965759        5.8811044401
 H       -11.8441234893        6.5707014653        6.0842160097
 H       -11.8504582982        4.9180532311        6.0464926328
 H       -12.9624704774        5.2648130868        2.0954577850
 H       -14.2538125814        5.1189545173        3.3245129308
 H       -12.8042812279        3.9872662530        3.2353067820
 H        -7.9872417176       10.5749127733        1.4799124231
 H        -7.4773360234        9.6509044390        0.0522496358
 H        -7.7926594202        8.8144962336        1.3373890568
 H        -9.9310124825       11.2112279019       -0.9091666258
 H       -10.3193765933       11.6842838920        0.5819731741
 H       -11.3683888072       10.5052496579       -0.3658928370
 H        -7.1907741828        2.6511837752       -4.2111271422
 H        -6.4126707333        4.0297178568       -3.4859885391
 H        -7.3366227155        4.4118127824       -4.8088083262
 H       -10.3041232163        2.5949495216       -3.8876256730
 H        -9.7180642608        3.8879368424       -4.9765080856
 H       -10.5874486802        4.2936991532       -3.6310224112
 H       -12.2961589732        1.6871260323        1.2161086523
 H       -12.4115855819        0.1093153751        1.9277528739
 H       -13.1007230898        0.4378798590        0.3814895383
 H        -9.1306725045       -1.1141633492        1.3199841459
 H       -10.6371005416       -1.8362595517        1.1890836280
 H       -10.2895627315       -0.7509465849        2.4318904633
 H       -11.9211955082       -4.4790262625       -5.6463375238
 H       -12.4228206757       -3.4115095451       -4.3837118661
 H       -11.1524345442       -4.7026333481       -4.2786396672
 H        -9.7030914652       -3.6951787642       -7.2639407600
 H        -9.8211657591       -4.9302793687       -6.0023512196
 H        -8.5061617576       -3.6914954681       -5.9609305000
 Na       -8.2437953727        4.0291468689        1.6533106340
