117

 C       -10.9178153437       -1.1302201111       -6.3018253442
 C       -11.8051222270       -2.2316800717       -5.7933460076
 O       -12.9816545702       -2.3756297639       -6.1401610556
 C       -11.0423614116       -3.2604066331       -5.0137748308
 C       -10.5194503273       -2.7695133719       -3.6352680750
 O        -9.4085654881       -2.8922000931       -3.2390658376
 C       -11.6169418451       -1.8904407410       -2.7525066819
 C       -10.6377472912       -0.9002290545       -2.0647710999
 C       -11.1223011513        0.0524903424       -1.0042033056
 O       -12.0226021290        0.8130476642       -1.2086713305
 C       -10.3735794798        0.0564814903        0.4642590356
 C        -9.2072796770        1.1012959042        0.6982720145
 O        -9.3287563167        1.8447891155        1.6562178081
 C        -8.1022125716        1.1928834084       -0.4428854721
 C        -8.6823208830        2.0469713098       -1.7016017585
 C        -8.2979245812        3.4684390748       -1.7887956237
 O        -7.9617482331        4.1162194941       -0.8206682290
 C        -8.3448643679        4.1758759629       -3.2085219039
 C        -8.5213497962        5.8361045182       -3.3740052716
 O        -7.5139519000        6.3220994363       -3.7696250825
 C        -9.7816091518        6.6989200462       -3.0530243761
 C        -9.5147708623        6.9445082798       -1.5631051444
 C        -9.3806547171        8.6004315619       -1.3432931822
 O        -9.7812402746        9.2623089349       -2.2758185607
 C        -8.8965733710        9.2268078474       -0.0230226644
 C        -9.8369385020        8.5216380670        1.0893197332
 O        -9.3367221900        7.8139246872        1.9421330820
 C       -11.3905203275        8.8934835764        1.0105478557
 C       -12.0977130569        7.6385413985        1.4862785360
 C       -12.0920156335        7.3617798261        2.9916416572
 O       -12.0894649112        8.2177347880        3.8290752102
 C       -12.3028706789        5.8251636841        3.5466195015
 C       -10.8711274439        5.3940826432        3.5543708075
 O       -10.3956720387        4.7100082835        2.6007228019
 C        -9.9108555722        6.2478252752        4.5267338904
 C        -8.9634904118        5.4879509222        5.3775355496
 C        -7.6521283933        4.9318923375        4.7523676115
 O        -7.4690738767        5.1158631335        3.5797261941
 C        -6.6047648710        4.0326328980        5.4191108184
 C        -6.7138915966        2.5497255696        4.7688418131
 O        -7.4990620419        2.4503421001        3.7881795707
 C        -6.1582878016        1.2501278135        5.4233336982
 C        -5.2652168634        4.6478892992        5.2001634138
 C        -6.8769256399        3.8515312918        6.9299369678
 C       -12.9455400936        5.8508070442        4.9003289687
 C       -13.2485625921        4.9976882277        2.6640853517
 C        -7.4626580508        8.9094482428        0.3026212400
 C        -9.1239483692       10.7108231371       -0.0007377471
 C        -6.8229610615        3.8384017033       -3.7082086762
 C        -9.2958815697        3.5999688096       -4.1895483362
 C       -11.5350583267        0.4347580322        1.4385517907
 C        -9.7790080441       -1.3578276034        0.9445828338
 C       -12.0780712785       -4.5107115276       -4.6649233512
 C        -9.9676080386       -3.9009605304       -5.9644616077
 H       -11.2942731803       -0.1381950187       -6.1333706869
 H       -11.0554538819       -1.1566215861       -7.3755210236
 H        -9.9651297383       -1.4534134515       -5.9945495148
 H       -12.2225579099       -2.3467025345       -1.9660097624
 H       -12.3326124371       -1.3899174023       -3.3971635235
 H       -10.2406242372       -0.2889069589       -2.8926696800
 H        -9.7569036376       -1.4879066103       -1.7878618017
 H        -7.6966097075        0.1741721136       -0.8270855690
 H        -7.3167760021        1.7843636822       -0.0348906469
 H        -9.8071870245        1.8511615942       -1.6684575416
 H        -8.4082780628        1.5812328580       -2.6815826791
 H       -10.7667292259        6.1150473410       -3.2096885000
 H        -9.7058414106        7.6467518209       -3.6824740298
 H        -8.6134193884        6.6199007594       -1.0306795654
 H       -10.3734152427        6.7124360086       -0.8736532989
 H       -11.4782615741        9.0428785307        0.0475270827
 H       -11.5983117080        9.7594056616        1.5241084478
 H       -11.6960990350        6.7247741196        1.1687601372
 H       -13.1717345674        7.6818199561        1.1796675578
 H       -10.5125729035        6.9534666889        4.9345787912
 H        -9.2588286577        6.8573400197        3.9279857857
 H        -9.5220565487        4.7089194348        5.9627244138
 H        -8.4868288760        6.0574385908        6.2190076504
 H        -6.1634702693        0.5276228137        4.6238867702
 H        -6.8660566692        0.9178803934        6.1933793844
 H        -5.2886549785        1.3932557218        6.0243566368
 H        -4.9878749319        4.7894632502        4.1492104284
 H        -4.4925680452        4.1400786406        5.7974831522
 H        -5.2078195649        5.6939082540        5.5562560314
 H        -7.7486155945        3.2434073747        7.1731450281
 H        -6.9056774806        4.8761973316        7.4242343252
 H        -6.1188656277        3.3691397993        7.5464441660
 H       -13.7816877559        6.6107105000        5.0191606832
 H       -12.2930104926        6.1076143054        5.6860848681
 H       -13.4367924313        4.8966851691        5.3842279241
 H       -12.8820897481        4.7918913814        1.6314738502
 H       -14.1971028903        5.4641326547        2.4589266995
 H       -13.4650347363        4.0099037536        3.1771793881
 H        -7.1419018368        7.9140869119        0.4791278674
 H        -7.2235658755        9.4763286708        1.1957697609
 H        -6.7345019621        9.1964055000       -0.4384732813
 H        -9.1726267022       11.2644946039       -0.9193820779
 H        -8.4169843518       11.2345225465        0.6201213127
 H       -10.0912021664       11.0135208506        0.5184547850
 H        -6.7920691508        3.8325781564       -4.7547801972
 H        -6.4255410720        2.8789262554       -3.2611417711
 H        -6.1112001017        4.6481641742       -3.4553427072
 H        -9.5164661207        2.5079509628       -4.2660763226
 H        -9.2585179930        4.1550960757       -5.1738661159
 H       -10.3128864596        3.8307644219       -3.9292756339
 H       -12.4991334763        0.1037301104        1.0136407162
 H       -11.6472311854        1.4328954269        1.7205838996
 H       -11.4352362005       -0.2262629115        2.3569815801
 H        -8.7645454923       -1.4178117479        0.6673173194
 H       -10.1888492604       -2.1939674234        0.4848644876
 H        -9.8947716201       -1.5207485906        1.9921802134
 H       -12.4297435100       -4.7962844019       -5.6763712795
 H       -12.9572992361       -4.2410723890       -4.0801016239
 H       -11.6937297370       -5.3652520633       -4.0892915591
 H        -9.6876575079       -4.9498229259       -5.7297309078
 H        -9.0481798314       -3.3310413042       -5.7938940492
 H       -10.2242807815       -3.7175945625       -7.0411510048
 Na       -8.5220563915        3.9127651123        1.6620541772
