117

 C       -11.2055009372       -0.9611472156       -6.1588958044
 C       -12.0131636942       -2.3857316173       -5.8359330782
 O       -13.1182217507       -2.4721035881       -6.1921763687
 C       -11.1893510922       -3.4323636343       -4.9820184556
 C       -10.6247115338       -2.8652206920       -3.6777786613
 O        -9.4208668055       -3.0992423820       -3.2326807404
 C       -11.4683400453       -2.0203443530       -2.7976609475
 C       -10.6177518492       -0.7455437784       -2.2212368783
 C       -11.1585036788        0.0252801039       -0.8882434823
 O       -12.0836974537        0.8042416437       -0.9560873198
 C       -10.5100796750       -0.0841488537        0.5628322914
 C        -9.3198311240        1.0359998008        0.6633410843
 O        -9.1734961233        1.6300455141        1.6727596602
 C        -8.2023620613        1.2416622376       -0.3159187473
 C        -8.7187108297        1.9434171359       -1.6497339503
 C        -8.4015581655        3.4579820398       -1.7342449154
 O        -8.0491570808        4.1856278894       -0.7814898313
 C        -8.2892648965        4.1743417952       -3.3007561418
 C        -8.3475935926        5.6878175408       -3.3612818385
 O        -7.5278594912        6.4006509623       -3.9194930975
 C        -9.6406033408        6.4515447750       -2.9319774693
 C        -9.5720937864        6.9312649046       -1.5342142806
 C        -9.3099645750        8.5600956401       -1.4096857812
 O        -9.8540642183        9.2058189930       -2.2516571966
 C        -8.7201886466        9.2244762282       -0.0304999044
 C        -9.6367057520        8.5449307188        0.9441746889
 O        -9.2835650320        7.8769799485        1.8989567638
 C       -11.2265321592        8.7693942060        0.8842757764
 C       -12.0883364521        7.5406546927        1.2793984809
 C       -12.2551624121        7.3524331554        2.8871231119
 O       -12.0249166858        8.2686820931        3.6996633346
 C       -12.4498133124        5.9787927985        3.4325884341
 C       -10.8529413895        5.5330070042        3.5212928405
 O       -10.4028176491        4.7170556350        2.7515983890
 C        -9.8873742883        6.2550441716        4.5643528643
 C        -8.8662787246        5.6049459481        5.4804664135
 C        -7.6408433106        5.0365416788        4.7253494568
 O        -7.2816021115        5.2955547036        3.6427738293
 C        -6.6583748064        4.0744313428        5.5844093063
 C        -6.8504232058        2.6202754810        4.8884001476
 O        -7.4338805935        2.4250161979        3.8325823286
 C        -6.0527507512        1.4544004264        5.4797967733
 C        -5.3222894561        4.8388906036        5.2349191577
 C        -6.9716387115        3.9132650391        7.1611981835
 C       -13.0537191054        5.9324056376        4.7856949683
 C       -13.3674613814        5.1446579600        2.3521753503
 C        -7.3059548782        8.8860448129        0.3173583961
 C        -8.9258582179       10.7559517228        0.0464997858
 C        -6.7999405335        3.8961740753       -3.6655935942
 C        -9.1462631234        3.7524894910       -4.5668724855
 C       -11.6081822419        0.2585446727        1.5804636747
 C        -9.7772804398       -1.4361567795        0.7334294171
 C       -12.2021672231       -4.5904568298       -4.5533936814
 C       -10.1161226157       -4.0703246212       -5.8615001267
 H       -11.9499559027       -0.1054200447       -6.1250298056
 H       -10.9625219229       -0.8976075272       -7.1771044943
 H       -10.3177110444       -1.0835584219       -5.5586291270
 H       -11.6732471187       -2.6062662038       -1.9206710046
 H       -12.4512058518       -1.8325871938       -3.3131556730
 H       -10.7840805766        0.0295008052       -2.9717227169
 H        -9.4903951028       -1.0140717833       -2.4123146771
 H        -7.8407128320        0.2649522826       -0.5080483545
 H        -7.3825596637        1.9004836007        0.1858219035
 H        -9.8609481315        1.7501924508       -1.5742569442
 H        -8.4603353204        1.4246521553       -2.6359058874
 H       -10.6071213115        5.8543002266       -3.0866151707
 H        -9.6144297433        7.3666040811       -3.5808328542
 H        -8.8778893859        6.5724995755       -0.8417561560
 H       -10.5267672996        6.9308295292       -1.0681177690
 H       -11.4306391150        9.1461281701       -0.1948588094
 H       -11.3624279987        9.5739169413        1.6069368603
 H       -11.7775666874        6.4858083099        1.0074366053
 H       -13.1050826706        7.7852418504        0.8753596660
 H       -10.6509755407        6.8486456275        5.0454343280
 H        -9.2873012755        7.0728648328        4.0981373131
 H        -9.3374203642        4.7881191051        6.1524859844
 H        -8.3622019264        6.2433810024        6.3043993357
 H        -5.7235050487        1.0082525311        4.5516282794
 H        -6.5532986478        0.8038716746        6.0493417296
 H        -5.3444623290        1.7924393203        6.1863624302
 H        -5.1391929124        4.8742170167        4.2315317834
 H        -4.3871820162        4.5145014062        5.7483072232
 H        -5.4104203676        5.8825040605        5.5908293550
 H        -7.9067124054        3.3775984854        7.4527231882
 H        -6.9810063494        4.8829525568        7.6658566803
 H        -6.1876119964        3.3790266161        7.8360773583
 H       -14.0870829189        6.2483926992        4.9564756477
 H       -12.5111068239        6.4593949326        5.7214472232
 H       -13.0933797776        4.8559416886        5.1765569258
 H       -13.0898261287        5.3481617184        1.2889146387
 H       -14.4438400665        5.4394647200        2.3713093659
 H       -13.3959366834        4.0383014362        2.4889989510
 H        -6.7591719640        8.0364443283       -0.1881648720
 H        -7.2014493881        8.8304296085        1.3774071167
 H        -6.6813993430        9.6236465209        0.0007512470
 H        -9.1101633131       11.2027415096       -0.9178609729
 H        -8.0159964404       11.2379749060        0.4680467937
 H        -9.6163444645       11.1756437960        0.6738004193
 H        -6.5070280846        4.4938497288       -4.5871550019
 H        -6.5140590422        2.8644766370       -3.6236428576
 H        -6.1516299435        4.4530978422       -2.9284015857
 H        -9.1989240920        2.7355940191       -4.8908659001
 H        -9.1450123625        4.4835394815       -5.3612272273
 H       -10.1781117061        3.7618497473       -4.2612176080
 H       -12.3890170379       -0.4017573292        1.5754621288
 H       -12.0390274327        1.2898793242        1.3776533614
 H       -11.1771261546        0.1977475704        2.6236621617
 H        -8.8729253208       -1.4246504248        0.0744883977
 H       -10.4155433988       -2.2579619526        0.3808744538
 H        -9.5274555686       -1.7123164461        1.7771606367
 H       -12.6608577794       -5.0251689199       -5.4653592394
 H       -13.0245952825       -4.1961815891       -3.9069215163
 H       -11.7805073312       -5.3179689462       -3.8544777667
 H        -9.4757440607       -4.7697397450       -5.3453267132
 H        -9.4438123719       -3.2424124025       -6.2302426061
 H       -10.5423464886       -4.5397860152       -6.6589386768
 Na       -8.2958667003        3.9950397924        1.6440098849
