117

 C       -11.7604456564       -1.0472013474       -5.7259975213
 C       -12.3006424968       -2.4194992232       -5.6714972605
 O       -13.3263722515       -2.8590178527       -6.2314270086
 C       -11.4350996012       -3.5239317262       -4.7875289608
 C       -10.5772341068       -2.9715670215       -3.6280512033
 O        -9.5421513652       -3.3381990663       -3.3547525884
 C       -11.3011503380       -2.0429302867       -2.5091202938
 C       -10.6851156194       -0.5935997751       -2.2450606684
 C       -11.2825258715        0.1190154680       -0.8597746492
 O       -12.2884287281        0.7237818229       -0.8501437184
 C       -10.5021992852       -0.1884226394        0.5128383527
 C        -9.4557795975        0.9840509873        0.5923228634
 O        -9.2655980419        1.5431594455        1.7003963989
 C        -8.4391116336        1.3279187592       -0.6533950348
 C        -8.9204877806        2.1166435982       -1.8839325259
 C        -8.4261412262        3.5977503197       -1.9223098964
 O        -8.4605966013        4.2253584697       -0.9186855520
 C        -7.8874784342        4.1315868088       -3.3060395827
 C        -8.1864499938        5.7154276697       -3.2492804160
 O        -7.5667181472        6.5184501775       -3.8965829982
 C        -9.4575486393        6.1716801177       -2.6351206369
 C        -9.3336583737        6.9470151635       -1.2935996124
 C        -9.2473492062        8.6043091581       -1.3758719335
 O        -9.6696051929        9.3212903281       -2.2654092005
 C        -8.6367579393        9.1663094070       -0.0971392760
 C        -9.5657294748        8.5851507326        1.0198395588
 O        -9.1444703453        7.8159697513        1.8874909611
 C       -10.9831225868        8.8826781634        0.8320193345
 C       -11.8737347883        7.7228379546        1.0726934772
 C       -12.0741430378        7.5765032342        2.6107966333
 O       -12.1063553337        8.5361336985        3.3389393565
 C       -12.3726583740        6.0449714201        3.1679902262
 C       -10.8644709739        5.5693743177        3.4419713988
 O       -10.3904239821        4.5975660458        2.8293455019
 C       -10.1164129225        6.4434516981        4.4936675366
 C        -9.1885345024        5.6166285214        5.4038795801
 C        -7.7685349741        5.2711972240        4.7801767749
 O        -7.5185000673        5.5047695840        3.5538666644
 C        -6.7218429804        4.3449940989        5.6261327709
 C        -6.7659840049        2.9036965729        4.9803306081
 O        -7.1877406328        2.6145524534        3.8585489385
 C        -5.8428603287        1.8580178622        5.5831333651
 C        -5.1838525021        4.7619235010        5.6232637534
 C        -7.2574408565        4.2505684810        7.0623201575
 C       -13.1901842352        6.1271290746        4.5636863268
 C       -12.9951285344        5.0436551963        2.2557065381
 C        -7.2622354228        8.6045203643       -0.0474849246
 C        -8.6527243461       10.6445936305       -0.2175528132
 C        -6.4240618119        3.6920284608       -3.5658091831
 C        -8.8371900907        3.5862489941       -4.4123089459
 C       -11.3864452166       -0.2750782187        1.7616884900
 C        -9.8094984304       -1.6558101023        0.3607648947
 C       -12.4674153143       -4.5211052963       -4.3129080718
 C       -10.4895103429       -4.2719518854       -5.8134320315
 H       -12.4906109789       -0.4853811177       -6.2241126340
 H       -10.9006561177       -1.0404985959       -6.5063208395
 H       -11.2923894650       -0.8421878455       -4.7728499686
 H       -11.2745304750       -2.7151866912       -1.5963055600
 H       -12.3159878315       -1.9146704466       -2.8242042899
 H       -10.9882586524       -0.0133708946       -3.1504230224
 H        -9.6618026150       -0.6752301366       -2.3935711621
 H        -7.8655886946        0.3856769737       -0.9096105783
 H        -7.8077142899        2.0382438415       -0.2689950767
 H        -9.9420899598        2.0840921196       -2.0911133620
 H        -8.5362313960        1.6138444086       -2.7193981332
 H       -10.0248895806        5.3476457553       -2.3770974578
 H        -9.9633396219        6.7507873357       -3.3515909248
 H        -8.4672715312        6.6680762351       -0.5971060894
 H       -10.3210137650        6.8598860853       -0.7655707665
 H       -11.1055790231        9.3342749537       -0.1090998275
 H       -10.9993044605        9.6794135317        1.6772635054
 H       -11.5978975225        6.7653064416        0.7233112300
 H       -12.8579931478        8.0075003775        0.7022184733
 H       -10.8118098007        7.1523400890        5.0324323797
 H        -9.4488356620        7.1825232879        3.9573303163
 H        -9.6267207003        4.7386345530        5.7883580811
 H        -8.9690563132        6.1746760925        6.2769968019
 H        -5.1306165163        1.6515111165        4.7817858692
 H        -6.4044093598        0.9107634480        5.9127474352
 H        -5.4327078085        2.1086715024        6.5685904274
 H        -4.6681552556        4.7845989758        4.6069698253
 H        -4.5175287088        4.0653438359        6.1221558958
 H        -5.0192736617        5.6698734995        6.2054768394
 H        -8.2939042217        3.8130764131        7.1055296106
 H        -7.3004576200        5.1997892785        7.7141695801
 H        -6.6540767423        3.6026150686        7.6597080380
 H       -14.2272440926        5.9677706803        4.4642609418
 H       -13.1496047160        7.0329082043        4.9175674622
 H       -12.9077541629        5.4880184472        5.3578527058
 H       -12.5403211123        4.9833348499        1.2814037438
 H       -14.0476730806        5.1444715725        2.1666266888
 H       -12.8649085542        4.0549200639        2.6711403487
 H        -6.9626477337        8.6175212806       -1.0657965514
 H        -7.2836986078        7.5537360353        0.3422290385
 H        -6.3672158534        9.1422936017        0.4225466445
 H        -9.0018770799       10.8770282358       -1.2216004356
 H        -7.7635239940       11.1716083184        0.0172844134
 H        -9.3724396512       11.1719608096        0.5110417185
 H        -5.7342392144        4.4541853768       -3.6765734586
 H        -6.3761940560        2.8104957491       -4.2406781002
 H        -6.0756559686        3.2825775643       -2.6301913569
 H        -8.6888249066        2.5524704512       -4.7574682840
 H        -8.7142628225        4.0872638592       -5.3812395620
 H        -9.8896315006        3.5898874305       -4.1611854165
 H       -11.1812059210       -1.2490468526        2.3244984129
 H       -12.3983824233       -0.2763635762        1.5080256307
 H       -11.1644776333        0.5132156791        2.4707168708
 H        -9.3551434983       -1.9537286849       -0.6062116046
 H       -10.5402749176       -2.4245088550        0.7164871781
 H        -8.9941848720       -1.7106500927        1.1450341659
 H       -12.9915811679       -4.8613317718       -5.1940750217
 H       -13.1935944198       -4.1667371864       -3.6181178456
 H       -12.0173812998       -5.3173376635       -3.7442814412
 H        -9.4641838070       -4.3051732681       -5.4717477774
 H       -10.5017778326       -3.9388517695       -6.8118575314
 H       -10.7694397773       -5.3573086840       -5.6258280048
 Na       -8.0299771501        3.9198563976        2.0293400514
