117

 C       -12.5716172351       -1.4793019475       -5.3881703924
 C       -13.0140459566       -2.9896080953       -5.3329131045
 O       -14.0714616945       -3.3624423195       -5.7315377028
 C       -12.1405376906       -3.9503812213       -4.4206555523
 C       -11.2327882821       -2.9461211775       -3.5495220963
 O       -10.0357074040       -2.7741164061       -3.9098293545
 C       -11.7030417280       -2.2366338021       -2.3786634713
 C       -10.9353217428       -0.8808236313       -2.0341377032
 C       -11.2606996524       -0.2240426629       -0.6836242765
 O       -12.2148027223        0.5536932363       -0.4389620828
 C       -10.1010109866       -0.6040922123        0.4844082923
 C        -9.4641189781        0.8155192054        0.4681113680
 O        -9.9516366578        1.6618377555        1.1497073467
 C        -8.6449292950        1.0585749215       -0.7744351103
 C        -9.1829487111        2.2137116947       -1.7051332579
 C        -8.3022872430        3.5359514451       -1.5511601352
 O        -8.1504796353        4.1225239711       -0.4832613792
 C        -7.6132251574        4.0723658779       -2.9085593560
 C        -7.7889039707        5.6055537560       -3.0673409294
 O        -7.0588492007        6.4094699090       -3.6560708624
 C        -9.1971662936        6.0108755699       -2.7973885045
 C        -9.3318839982        6.9073741721       -1.4625586848
 C        -8.8012469967        8.3118013952       -1.7192068091
 O        -8.8485324537        8.8502443331       -2.8076346430
 C        -8.2624036956        9.1263233254       -0.4964932472
 C        -9.2859006988        8.7044463851        0.7301434441
 O        -9.0176776183        7.9961937920        1.6808634557
 C       -10.6597541101        9.3343917797        0.6554416330
 C       -11.7582217652        8.3049061215        1.0134855328
 C       -12.1557445368        7.8701330121        2.4508851905
 O       -12.3880547755        8.6809563294        3.3024337604
 C       -12.1757688477        6.3582730328        2.7647253540
 C       -10.8014349043        5.8346128302        3.2356349210
 O       -10.4203484729        4.7823669719        2.8162546290
 C       -10.0759037372        6.6859364711        4.2130447142
 C        -9.1654302962        6.1135889312        5.3196953872
 C        -8.0028290497        5.2930563025        4.7422114237
 O        -7.9728072977        5.2653190038        3.5677509564
 C        -6.8300472959        4.7810382605        5.7391264976
 C        -6.4384231418        3.3572158593        5.0234403425
 O        -6.7607634344        3.0794695630        3.8996643189
 C        -5.5970517894        2.3981224666        5.8474708424
 C        -5.5414782252        5.5971874422        5.8934442586
 C        -7.4011309706        4.4635228502        7.1378346345
 C       -13.2208103319        6.0351779854        3.8280027245
 C       -12.5638957625        5.6192521290        1.4448950966
 C        -6.8369402748        8.6227292790       -0.1283712498
 C        -8.1173659048       10.7472276703       -0.6942554362
 C        -6.1216608137        3.6599372485       -2.7579092661
 C        -8.0970122298        3.3740483886       -4.2784430937
 C       -10.8115113487       -0.8524074600        1.8484069239
 C        -9.2687269430       -1.8107369620        0.1385895427
 C       -13.1197766661       -4.8456992210       -3.7116611322
 C       -11.1380823171       -4.7993106916       -5.3363829869
 H       -11.9515888212       -1.6436687220       -6.3298713957
 H       -12.0610811503       -1.2350528001       -4.5002571652
 H       -13.4505079132       -0.7968940498       -5.6106254940
 H       -11.6819390614       -2.7477738404       -1.4175112152
 H       -12.7519653223       -1.8929871574       -2.5359359898
 H       -10.9663879306       -0.1507952612       -2.8249448661
 H        -9.8813537697       -1.1106420890       -1.9485403031
 H        -8.5721963701        0.1064254953       -1.2416074229
 H        -7.5963907299        1.2699881943       -0.4462490276
 H       -10.1025644984        2.3966910999       -1.2140833491
 H        -9.4222357692        1.9152585794       -2.6761096703
 H        -9.8580240381        5.1991208884       -2.7535318814
 H        -9.4640267980        6.6987873917       -3.5085745747
 H        -8.9448062206        6.4178953356       -0.5079435724
 H       -10.4936860033        7.1361028181       -1.4045906334
 H       -10.7835542253        9.5661720866       -0.3904967576
 H       -10.7633593664       10.1174561893        1.2244721711
 H       -11.5977255337        7.3701432810        0.5630703385
 H       -12.6982840547        8.7059553012        0.6047874605
 H       -10.7653740659        7.3813865929        4.6626906855
 H        -9.3862024636        7.3439049683        3.5867186881
 H        -9.7455414050        5.4863098420        5.9418772104
 H        -8.9076439157        6.9664681091        5.9419550656
 H        -5.4517350335        2.8767084826        6.8946730436
 H        -4.6483881403        2.3369639467        5.3175809911
 H        -5.9665406106        1.3365317712        5.9019427957
 H        -4.9885141280        5.7028793460        4.9885665363
 H        -4.8338407996        4.9625137132        6.5040901450
 H        -5.6204668050        6.5088998670        6.5133032641
 H        -8.2608077631        3.8372496220        7.1539048656
 H        -7.9027453618        5.2544152594        7.6101142994
 H        -6.6334894162        4.0778607726        7.9112792354
 H       -14.0989992960        6.5715673181        3.5682676361
 H       -12.9300704283        6.4053078302        4.8134357017
 H       -13.4957001604        5.0789730509        3.8949799161
 H       -11.6875073180        5.5899268420        0.8274307873
 H       -13.4369711814        5.9315000160        0.9250831148
 H       -12.6693870171        4.5526872574        1.6392955547
 H        -6.1272357662        8.7272662368       -1.0627099190
 H        -6.8931467099        7.5776265989        0.2458597158
 H        -6.4729386653        9.2761406436        0.6211508124
 H        -7.1353092438       11.0583617756       -1.0839100041
 H        -8.1440802670       11.1447380269        0.3666034864
 H        -8.8808600286       11.1538455523       -1.2552476659
 H        -5.7769605052        3.5343852555       -1.6896100423
 H        -5.5141794771        4.3842796940       -3.2216155537
 H        -5.8285980245        2.7032497430       -3.2310930845
 H        -7.7795047732        2.3441111280       -4.3622290173
 H        -7.5003847168        3.7365524163       -5.1349220836
 H        -9.0988779574        3.5084745091       -4.6422191915
 H       -10.6387996547       -0.0697643364        2.4802011980
 H       -10.4440595501       -1.7772697252        2.3506981191
 H       -11.9242363332       -0.9420340842        1.7114462623
 H        -8.6261030194       -1.6344158731       -0.7849898493
 H        -9.9483871416       -2.6486946142       -0.1115044388
 H        -8.5390728120       -1.8900039378        0.9778588198
 H       -13.6295300247       -5.3957874241       -4.5229585240
 H       -13.9193687217       -4.2184552027       -3.2989065269
 H       -12.7130277025       -5.5762176595       -3.0122198516
 H       -11.3992288639       -4.6247357877       -6.4135802018
 H       -11.2288848609       -5.8973873982       -5.1827987921
 H       -10.2068885466       -4.4020987963       -5.2328625303
 Na       -8.4640260045        3.5590481332        2.0752048605
