117

 C       -13.9769310226       -0.6910796452        6.1963063733
 C       -12.9696363326       -0.9021724947        5.0097121073
 O       -12.2243599337        0.0205271191        4.6829672875
 C       -13.0467479413       -2.1721309514        4.1051286348
 C       -11.9340599509       -1.8967963081        2.9857733252
 O       -12.3211224234       -1.8140996455        1.8677523407
 C       -10.3303363372       -1.9086693076        3.3383294072
 C        -9.4670007739       -1.1987356104        2.3557088397
 C        -7.9563707983       -1.7626762075        2.3358826350
 O        -7.7338679692       -2.9422571578        2.4475656458
 C        -6.6993618779       -0.8247502055        2.2952757105
 C        -6.9831309567        0.6461003274        2.7125084127
 O        -7.2372922647        0.7269011842        3.8656225709
 C        -6.9906422864        1.8726110156        1.8202113143
 C        -6.7181487608        3.2416865421        2.5745329875
 C        -7.7867062535        4.3270773327        2.2462355960
 O        -7.4576711429        5.1735764119        1.3863714887
 C        -9.2345754078        4.3620380070        2.9544155691
 C       -10.3985649567        4.2486929153        1.7868992745
 O       -10.3967588019        5.0080518057        0.8731978195
 C       -11.2460836882        2.8889698885        1.6553563359
 C       -11.6902512399        2.8617145233        0.1088433346
 C       -10.4854686276        2.6167248868       -0.8081142727
 O        -9.3050491495        2.6046089693       -0.4488387793
 C       -10.6720239316        2.5088498075       -2.3902936869
 C        -9.8138992828        3.7198719763       -2.9908356681
 O        -9.4570071253        4.6307179752       -2.2504089234
 C        -9.6795197132        3.7791308561       -4.5246330469
 C        -9.4330911705        5.2274506026       -5.0774501532
 C       -10.6550937126        6.2109576351       -5.2597599028
 O       -11.7896502978        5.9785834118       -4.8985974923
 C       -10.4179097814        7.6934070513       -5.9142636051
 C       -10.1458393379        8.5654464393       -4.6728177536
 O        -8.9766463479        8.8172678719       -4.3644983162
 C       -11.3715812689        8.9191436265       -3.8838121753
 C       -11.1358362125        9.5281902618       -2.5463741868
 C       -10.3128958106        8.7225835812       -1.5523016704
 O       -10.6461752187        7.5967948869       -1.2646278201
 C        -8.9389806014        9.2551886301       -1.0518860978
 C        -7.6649890531        8.5610022362       -1.8303139364
 O        -7.4720866104        7.3760965665       -1.9946923467
 C        -6.7458052424        9.5919124320       -2.5366487160
 C        -8.9202016738       10.7984386235       -1.2758522004
 C        -8.7751060794        8.9632314087        0.4680335759
 C        -9.1959933376        7.6912663577       -6.9816514007
 C       -11.6686380888        8.1424964371       -6.6647890851
 C       -10.0798134105        1.1422697588       -2.8407793385
 C       -12.1685528960        2.6906309013       -2.9507758447
 C        -9.4706197593        3.3006439334        4.0344675099
 C        -9.4652566915        5.8034274058        3.5782631206
 C        -5.6302837470       -1.4269303894        3.2579951120
 C        -6.0464157130       -0.9125359572        0.8492637230
 C       -12.8623999585       -3.6109890014        4.8789855135
 C       -14.5111344360       -2.0705123312        3.5129658363
 H       -14.9127344612       -1.3111919675        6.1257464207
 H       -14.2434467119        0.3974508685        6.4533311262
 H       -13.6452310216       -1.1522386683        7.1968689995
 H       -10.0461742468       -3.0228549379        3.4734559362
 H       -10.2912765348       -1.4918558184        4.3170780988
 H        -9.3956500397       -0.1347959153        2.5641828897
 H        -9.8500979457       -1.2884290954        1.3611825418
 H        -8.0170505282        1.8425436822        1.4613270396
 H        -6.3040305147        1.8257386867        0.9559979694
 H        -5.7282986597        3.6084089849        2.3693251017
 H        -6.7591523155        3.1431673102        3.6127544525
 H       -12.0583405849        2.9338600673        2.4178979659
 H       -10.6792164952        1.9988047248        1.7993730841
 H       -12.0296624550        3.8340965088       -0.2169768563
 H       -12.4537035456        2.0562863058        0.0159874984
 H       -10.5373573203        3.1976550730       -5.0042064775
 H        -8.8151721132        3.1241425177       -4.8704072695
 H        -9.0489191893        5.0023807984       -6.1189038406
 H        -8.6245249419        5.7565969170       -4.4812264937
 H       -11.9392873859        7.9413938388       -3.7237662335
 H       -12.1816742990        9.4909709440       -4.4843759719
 H       -12.1924837612        9.5484236919       -2.1350928149
 H       -10.7952263186       10.5652516712       -2.6455536647
 H        -7.3909955795       10.0685134537       -3.2667666538
 H        -5.9439607470        9.2126120672       -3.0742610098
 H        -6.4160306910       10.3955039187       -1.9633787314
 H        -9.7849845716       11.2534789933       -0.8197683729
 H        -8.8305653816       11.1355634580       -2.2854931728
 H        -7.9607422745       11.3246073547       -0.8313511731
 H        -8.8361291570        9.8572571890        1.0530353700
 H        -7.9032847717        8.4311624447        0.8222594747
 H        -9.6926782630        8.4090492541        0.8158653685
 H        -9.3943948302        6.9357339788       -7.6780346966
 H        -8.2330341085        7.4293221659       -6.4643613627
 H        -9.0880279904        8.6166891346       -7.5227066936
 H       -11.7183180713        7.7123510690       -7.6780225225
 H       -11.7345203360        9.1943735505       -6.7036621395
 H       -12.5395445556        7.7634902929       -6.2169650323
 H        -9.8784990447        0.5796695093       -1.9140815274
 H        -9.1160517883        1.3956451327       -3.2748269044
 H       -10.7573060226        0.6213747952       -3.5472442940
 H       -12.4513297636        3.6049530675       -3.4270426500
 H       -12.8438804374        2.6406770087       -2.1438754315
 H       -12.4054971214        1.7643384168       -3.5496941114
 H        -9.5964136947        2.3068987313        3.7369104587
 H       -10.3239261857        3.3311613916        4.7791548321
 H        -8.6394839012        3.2436711310        4.7135654047
 H        -9.9109355436        6.5448564119        2.8961981598
 H        -8.5335818296        6.2077126684        3.9105208400
 H       -10.1996530317        5.8404745724        4.3801430307
 H        -5.1870732452       -2.2924014083        2.8709870508
 H        -6.0989684933       -1.5222448095        4.2267479688
 H        -4.8288691591       -0.7154719999        3.4547491899
 H        -6.8631175734       -0.7888920535        0.1387447645
 H        -5.6011018242       -1.8356178996        0.6665827916
 H        -5.3891357972       -0.0722251010        0.8039231992
 H       -12.1564975408       -3.3952736962        5.6695436284
 H       -12.6148611209       -4.4073268416        4.1712953482
 H       -13.7511658991       -3.8938205609        5.3694356925
 H       -14.6172982872       -1.0698091629        3.1377825165
 H       -15.2650194425       -2.2299588385        4.2922364220
 H       -14.5170291812       -2.7854856237        2.7245699106
 Na       -8.7766342824        6.0174927472       -0.4929409923
