117

 C       -12.7899430795       -1.5844204685       -5.6905735159
 C       -13.1494435015       -3.0204561247       -5.2850130754
 O       -14.1871991680       -3.5796383206       -5.5648134803
 C       -12.2414350688       -3.9307738934       -4.4207730078
 C       -11.2519616686       -3.0344944537       -3.5859374358
 O       -10.0746792751       -2.8300714073       -4.0821893604
 C       -11.9100643435       -2.3035849606       -2.3068245329
 C       -11.2053768692       -0.9945608125       -1.9967448090
 C       -11.3198788371       -0.4535446660       -0.5678430512
 O       -12.1215440963        0.4355308178       -0.2985692860
 C       -10.2157715743       -0.7037636806        0.5300538559
 C        -9.5555007083        0.8217634026        0.5193056645
 O        -9.8090754403        1.6841497001        1.2982644322
 C        -8.6234300489        1.0188297503       -0.6213787311
 C        -9.1272373285        2.2834028616       -1.4413303403
 C        -8.2299958933        3.4745025715       -1.4684939748
 O        -8.1821774209        4.2012537413       -0.4197758972
 C        -7.4101398647        3.9542983527       -2.8226401347
 C        -7.6910449480        5.5789564667       -3.0613463890
 O        -6.8306471297        6.2287632468       -3.5747976608
 C        -9.1542576084        5.9891020044       -2.6989769871
 C        -9.3572890655        7.0339730967       -1.5017269874
 C        -8.7786510545        8.3954793743       -1.8535522909
 O        -8.6692970222        8.6624718914       -3.0689402883
 C        -8.2078012877        9.1918687367       -0.4526266689
 C        -9.2702027287        8.8492213044        0.6683031978
 O        -9.0488465251        8.0675684426        1.5400742911
 C       -10.7192655095        9.6310878351        0.7137600814
 C       -11.8179566206        8.5638043822        0.9041789421
 C       -11.9993515106        8.0407068665        2.3924428847
 O       -12.3289223640        8.7404974357        3.2819707504
 C       -12.1685135162        6.3624916587        2.6668574132
 C       -10.8573465912        5.7142030134        3.2068253219
 O       -10.3679322917        4.6867238661        2.7552255725
 C       -10.1205527397        6.7776214382        4.2214609170
 C        -9.1300984543        6.2672632826        5.2923086412
 C        -7.9571350162        5.4570819473        4.6915203441
 O        -7.9524368556        5.1551162751        3.5083473177
 C        -6.9901553215        4.7405832431        5.6968291929
 C        -6.4922186490        3.4414570078        5.0235814549
 O        -6.7700426529        3.0316368162        3.8696160679
 C        -5.3971906490        2.6269034680        5.8128264682
 C        -5.6582500668        5.5357952103        5.8720957796
 C        -7.5594137585        4.5960791984        7.1157819670
 C       -13.4145673361        6.1780892174        3.6714252584
 C       -12.5880668062        5.5608826809        1.4107936698
 C        -6.7825373023        8.6132543390       -0.2652572717
 C        -8.0702264765       10.6353945571       -0.4249304730
 C        -5.8617413911        3.7566213395       -2.7858789854
 C        -7.8759182646        3.4708997535       -4.2136139976
 C       -10.7332807040       -0.9905115737        1.9910581541
 C        -9.2689231445       -1.8655341507        0.1835757501
 C       -13.1123253109       -4.8294752617       -3.5322617565
 C       -11.4741511353       -4.9434799114       -5.4045764807
 H       -11.9691212116       -1.7181424902       -6.3334892048
 H       -12.6501550173       -1.0387411182       -4.7206837782
 H       -13.6113212034       -1.2039058356       -6.3417001010
 H       -11.8327544006       -2.8183727257       -1.3831420412
 H       -13.0035101184       -2.0558392290       -2.4453344618
 H       -11.6045840190       -0.2237084893       -2.5438198666
 H       -10.1308486528       -1.1051285307       -2.2503239475
 H        -8.5748634824        0.1123216319       -1.1768967055
 H        -7.5213731182        1.0878139489       -0.2179731940
 H       -10.0603068389        2.4924106586       -0.8892935492
 H        -9.3701899349        2.0064714959       -2.5077330378
 H        -9.7064638560        5.1405588973       -2.3582762227
 H        -9.6618044682        6.4314892387       -3.5715708711
 H        -8.7704844914        6.5896378862       -0.6553059939
 H       -10.4720626579        7.0245437689       -1.2925495281
 H       -10.8932240519       10.1609248186       -0.1462891504
 H       -10.8833767494       10.3537741533        1.5690534377
 H       -11.8537193515        7.7157613860        0.2577119123
 H       -12.7338661847        9.0504177941        0.7557231447
 H       -10.9533222017        7.3212072973        4.7130741328
 H        -9.5845842067        7.4405797773        3.6570145245
 H        -9.7183951723        5.5155168231        5.8025797033
 H        -8.7827092448        7.0542830917        6.0007048257
 H        -5.7358819499        2.4749426617        6.8361015568
 H        -4.2856192192        2.9737940753        5.7606292523
 H        -5.3632107344        1.6110738152        5.3203063784
 H        -5.2231059645        5.7013841548        4.7780527582
 H        -4.8475991385        4.9746617763        6.3396794017
 H        -5.7396668427        6.4411769381        6.4452503509
 H        -8.5815289500        4.2128582325        7.3094979450
 H        -7.6855386186        5.5422032634        7.6330246193
 H        -6.8648654162        4.0402433227        7.6913844436
 H       -14.3216048918        6.7010619279        3.1540533204
 H       -13.2635006593        6.7073868268        4.5840019127
 H       -13.7915868152        5.0935033194        3.8612117575
 H       -11.7758737645        5.5782469533        0.7194735907
 H       -13.4802180279        5.9539164245        0.8855103772
 H       -12.7330411079        4.5486188659        1.6599365851
 H        -6.3370629855        8.5016045159       -1.2324424629
 H        -6.9250443274        7.6233433533        0.1861400045
 H        -6.1388832759        9.3039279110        0.3714959849
 H        -7.1183814855       10.8404328810       -0.9638024779
 H        -7.8941944449       11.0240066197        0.6035197781
 H        -8.8710953336       11.1493962558       -0.9605944127
 H        -5.5694999193        3.5419710670       -1.7238554934
 H        -5.4251115315        4.7162016009       -2.9710577128
 H        -5.3862196223        3.0207982646       -3.3693813615
 H        -8.1625679767        2.4115252236       -4.2692317833
 H        -7.1968448647        3.5270668616       -5.0782489956
 H        -8.7894749095        4.0782254019       -4.5896833915
 H       -10.6505516114       -0.0369832314        2.5566943982
 H       -10.0431616986       -1.7165998113        2.4996544052
 H       -11.6787058431       -1.3600053761        2.0216045615
 H        -8.7983317646       -1.9178197126       -0.8024528050
 H        -9.9138748999       -2.7428315659        0.2388760603
 H        -8.5398690496       -1.8025387998        0.9233124347
 H       -13.6434587014       -5.5527288796       -4.1027819635
 H       -13.8087974758       -4.1366963630       -3.1074187143
 H       -12.5544264415       -5.3594245325       -2.7857818464
 H       -12.0523531760       -5.2255337121       -6.2887985399
 H       -11.2869266154       -5.8571287337       -4.8067422034
 H       -10.4770822947       -4.4873863623       -5.7439917010
 Na       -8.3173531347        3.6501743356        1.9196143801
