117

 C       -14.9660334446       -5.0166980283       -5.3421477556
 C       -14.7129469925       -4.0614478403       -4.1126451359
 O       -15.6502485941       -3.4141249946       -3.7218142258
 C       -13.2871650189       -4.0738984120       -3.3923073384
 C       -12.7029993757       -2.5016261843       -3.2957726531
 O       -12.3583791813       -1.8209344357       -4.1901439527
 C       -12.5711680738       -1.8805920172       -1.8603253685
 C       -11.3042087510       -2.0610384756       -1.0454464990
 C       -11.2190903566       -0.9389055013       -0.0902217646
 O       -12.2595507059       -0.4059575254        0.2775644141
 C        -9.5868085767       -0.6485514951        0.6959424192
 C        -9.3023825184        0.9099060780        0.7243371204
 O        -9.6290704417        1.5488823811        1.7071811648
 C        -9.0116239125        1.4083454774       -0.6970721726
 C        -8.8554615692        2.8879489594       -1.1106084872
 C        -7.5389070045        3.3830496561       -0.4242514193
 O        -7.4243441585        3.5526856975        0.8143674411
 C        -6.4031784992        3.5371158868       -1.3456801204
 C        -6.4597364092        5.1059213805       -1.6859619858
 O        -5.8547298165        5.8796512078       -1.0580819722
 C        -7.4487171910        5.5822017992       -2.6980579497
 C        -8.2886323818        6.6774567486       -1.8771898389
 C        -7.8983164064        8.0946641469       -2.1398471187
 O        -7.5745776260        8.4211490847       -3.2887772204
 C        -8.0007051776        9.2611001068       -0.8955410016
 C        -9.3449990576        9.0649495287       -0.2049728536
 O        -9.5539691614        8.1013773579        0.5168657477
 C       -10.3419452775       10.2098539328       -0.2933339195
 C       -11.7643625585        9.6275985117        0.0586239015
 C       -11.8217655957        8.7728901618        1.3122347867
 O       -11.7776846582        9.3388521152        2.3942898149
 C       -12.1144676617        7.1585485068        1.3752462468
 C       -10.9575099619        6.2922099048        1.9589737214
 O       -10.5270899852        5.2436668172        1.4700957050
 C       -10.4854857971        6.8572437078        3.3399592731
 C        -9.5262657360        5.9346762870        4.2258215772
 C        -8.1096791317        5.4902752432        3.7433473820
 O        -7.5580041943        5.9665320736        2.7820331902
 C        -7.3120378274        4.7199406916        4.8115235004
 C        -6.5428265112        3.5525355203        4.0874179342
 O        -7.1880498833        2.8543094394        3.3978835786
 C        -5.1004839557        3.3516785567        4.2738320790
 C        -6.2705326704        5.7642412510        5.2963420339
 C        -7.9903043424        4.1074215042        6.0226097834
 C       -13.3580701951        6.8796389885        2.3474970223
 C       -12.3433807784        6.6041488232       -0.0646641741
 C        -6.9020925821        8.9645744842        0.1897980682
 C        -7.8480799663       10.8143878607       -1.5372241539
 C        -5.0939913533        3.4357460826       -0.6229957392
 C        -6.3928155266        2.5474559463       -2.6095623155
 C        -9.8758344244       -1.0885627292        2.1305062527
 C        -8.3270364814       -1.5175048343        0.3227817776
 C       -13.3497935379       -4.6976875284       -1.9646930150
 C       -12.3197473717       -4.8585414069       -4.2696878324
 H       -14.0462455404       -5.2486500009       -5.9260674451
 H       -15.6405978314       -4.5108622849       -5.9923540187
 H       -15.5878317869       -5.8692327014       -5.0115360132
 H       -13.3468656564       -2.2963440116       -1.2345442198
 H       -12.7160532218       -0.7901590039       -2.0781926596
 H       -10.2881449599       -2.2213704155       -1.4820811931
 H       -11.3020387605       -2.9036298629       -0.3110506642
 H        -9.8445141780        0.9465585820       -1.2538598991
 H        -8.1266782565        0.9069558986       -0.9862544127
 H        -9.7077534705        3.4921953771       -0.7773655044
 H        -8.8642095041        2.9509100432       -2.1682078831
 H        -8.0720593299        4.7437013282       -2.9753346106
 H        -6.8674210024        6.0286150009       -3.5522262218
 H        -8.3194883460        6.3778437110       -0.8007727732
 H        -9.2720307893        6.6322679161       -2.2873353126
 H       -10.4129904257       10.7513686004       -1.1524363110
 H       -10.1425235704       10.9372230826        0.3746441643
 H       -12.2105899622        9.0345185050       -0.8199168423
 H       -12.4617022841       10.4759127990        0.3656574489
 H       -11.4016252205        7.0899253293        3.8707968096
 H        -9.7082807453        7.7111049707        3.2043463531
 H       -10.1679345891        5.1040915555        4.5962000014
 H        -9.4317503801        6.5259062503        5.1459517353
 H        -4.8638793964        2.2973397221        3.9705767159
 H        -4.6814036011        3.6326733236        5.1409645566
 H        -4.6606152762        3.8825551630        3.4482559627
 H        -5.8528935500        6.1491675076        4.4639601826
 H        -5.4685558845        5.1957582015        5.7742141127
 H        -6.6428256470        6.3813192329        6.1239350647
 H        -8.8083095348        3.4524487384        5.8578791356
 H        -8.5376693188        4.7827685709        6.6511860759
 H        -7.3486398970        3.4950330834        6.7238101805
 H       -14.2066215780        7.2123528341        1.8082972607
 H       -13.2923287726        7.4822109155        3.1787524431
 H       -13.3450351301        5.8934702398        2.5891405327
 H       -11.4326413324        6.7178512522       -0.6226746567
 H       -13.2645332699        6.8444765437       -0.5046819320
 H       -12.3585320276        5.5319745054        0.1162741078
 H        -5.9575046261        9.2935214140       -0.2685393271
 H        -7.0161006972        7.9248632839        0.2786090806
 H        -7.0659154108        9.5290092918        1.0799508468
 H        -8.3651354241       11.4195674482       -0.8306537022
 H        -8.2036512234       10.7690659784       -2.5394599387
 H        -6.7418107043       10.9597742152       -1.5622740598
 H        -5.0734418103        2.4274587416       -0.3743997140
 H        -4.9529631813        4.1667260029        0.2090414098
 H        -4.2063515677        3.5822626173       -1.2688594101
 H        -5.8554426945        1.6343296778       -2.1921787615
 H        -5.7600422404        2.9258432105       -3.4563501433
 H        -7.3912008290        2.3446543075       -2.9066153658
 H       -10.7701469654       -0.6272515023        2.5243343764
 H        -9.0760016839       -0.7277808537        2.6776212768
 H       -10.0714097260       -2.2169450109        2.2151518438
 H        -8.1617416434       -1.4999591267       -0.7262769159
 H        -8.3252617296       -2.5126550032        0.5847621128
 H        -7.4716804060       -1.0186626214        0.7548882259
 H       -13.5116561226       -5.7545777575       -2.1567061272
 H       -14.2757272940       -4.3823246334       -1.5668743799
 H       -12.4224528507       -4.5251318421       -1.4362884654
 H       -12.6992979212       -4.7499740929       -5.2852707173
 H       -12.3317834813       -5.9393192752       -4.1598850548
 H       -11.2934499968       -4.5668799095       -4.1790793864
 Na       -9.1564658523        3.4206246411        2.3158419870
