117

 C       -15.5414812991       -5.3878899937       -3.6355192366
 C       -14.8145728340       -4.1586759733       -3.3486288963
 O       -15.4600868064       -3.0786706450       -3.3382524878
 C       -13.3156168960       -4.1234246183       -3.0035215762
 C       -12.9160627881       -2.5768575148       -3.0026178695
 O       -12.6092385413       -2.0175520217       -3.9645602342
 C       -13.0189094902       -1.7693706088       -1.6558354643
 C       -11.9195821092       -2.0998695061       -0.7261590846
 C       -11.4419188675       -0.8179131977       -0.0194370168
 O       -12.3098725724       -0.0928386217        0.4059646113
 C        -9.7810675131       -0.7096358970        0.4631766154
 C        -9.4341770143        0.8646575016        0.4326819813
 O        -9.3861407042        1.3749019411        1.5523223063
 C        -9.0793433072        1.5451382795       -0.8745155313
 C        -8.6432253028        2.9822703561       -1.2880383350
 C        -7.3841610292        3.3534613589       -0.4674263989
 O        -7.5793074210        3.4672405692        0.7459347831
 C        -5.9347215835        3.4900946567       -0.9870155580
 C        -5.8512031782        4.9911953582       -1.3310990879
 O        -5.1515655530        5.6955488603       -0.6774789312
 C        -6.8384589473        5.5304185580       -2.5305646983
 C        -7.8394349055        6.6286998756       -1.9581013754
 C        -7.3866754591        8.0417636463       -2.5114945314
 O        -6.6877948097        8.2432005898       -3.4490851230
 C        -7.8556552952        9.2232325978       -1.3143836193
 C        -9.1288700422        8.9602159444       -0.4425571952
 O        -9.2392881886        7.9888779779        0.2648342580
 C       -10.1614133973       10.0665037745       -0.1730924786
 C       -11.5762702189        9.5436284775       -0.1883167557
 C       -11.9642011053        8.8145126102        1.1813360355
 O       -12.3119443261        9.4334211158        2.1577493806
 C       -12.1706329695        7.2588882068        1.1455698374
 C       -11.0553137706        6.4230003775        1.9773092012
 O       -10.8599438688        5.2576224613        1.7602224352
 C       -10.3752134549        7.2273884247        3.0781284965
 C        -9.6151637925        6.3617555021        4.0200604664
 C        -8.2785261335        5.8617097224        3.6887273623
 O        -7.7231979092        5.8884690653        2.6020300297
 C        -7.4299776247        4.9207852687        4.8184645698
 C        -6.8863303818        3.7088522932        3.9838091227
 O        -7.5982699046        2.9050120588        3.5307792589
 C        -5.3711306996        3.6289185277        3.6358149018
 C        -6.3468356555        5.8558599542        5.4413879636
 C        -8.3883136895        4.3576940859        5.8048820408
 C       -13.3964149484        6.9246279185        2.0796484841
 C       -12.1886413223        6.4323929175       -0.1949415395
 C        -6.6431882874        8.9365842591       -0.3725456818
 C        -7.9442013708       10.6081052170       -1.8995311529
 C        -4.9330114995        2.8190924532        0.0416985773
 C        -5.8534469733        2.7682892234       -2.4011330965
 C        -9.5747223907       -1.2359401501        1.8658816045
 C        -8.9322107149       -1.8312896298       -0.3556189554
 C       -13.2882757650       -4.8660078346       -1.6337264488
 C       -12.5677906803       -4.9768525591       -4.0272901322
 H       -15.0218900697       -5.6895100475       -4.5774809593
 H       -16.5401402974       -5.1940481193       -3.7429950452
 H       -15.7568287237       -6.0965065082       -2.8469544538
 H       -13.9521853739       -2.0142988790       -1.1294472734
 H       -13.1134276282       -0.7426127731       -1.9908697135
 H       -11.0874113536       -2.7314155085       -1.1775689776
 H       -12.2564533487       -2.7310739287        0.1456420377
 H       -10.1340167015        1.5366841698       -1.3435784021
 H        -8.5227879080        0.8112626729       -1.3959119502
 H        -9.3826143364        3.8419645902       -1.1183439053
 H        -8.4781169429        2.9731763636       -2.3492948398
 H        -7.3508802576        4.6691140239       -3.0113190558
 H        -6.1359483456        6.0465214072       -3.2951185900
 H        -7.7948076952        6.7141796116       -0.8939438935
 H        -8.7777576994        6.4795956116       -2.3236383590
 H       -10.1429558656       10.9132570305       -0.6329930952
 H       -10.0089690047       10.3198735313        0.8278926418
 H       -11.7219780951        8.8446497289       -1.0539194272
 H       -12.3902809782       10.3546935599       -0.3650948851
 H       -11.2070191478        7.6921281919        3.6739201992
 H        -9.5953419970        7.9830945119        2.5389329191
 H       -10.3641678674        5.4396603658        4.1341306476
 H        -9.7559132857        6.7356533666        5.0844095696
 H        -5.0691350787        3.3191830038        2.6188152713
 H        -4.8252266872        2.9999904658        4.2860644995
 H        -4.9739582799        4.6157918858        3.8301070608
 H        -5.6466591797        6.0630642415        4.6344310197
 H        -5.7485682452        5.2820889477        6.1409698431
 H        -6.8217051868        6.6931693500        5.9760051376
 H        -9.0373690772        3.5515238526        5.5756104235
 H        -9.1972438415        4.9801840944        6.0164673571
 H        -7.9857614574        4.0050794705        6.8368177894
 H       -14.1603395556        7.6253382302        1.7302078293
 H       -13.1640773907        7.1498308987        3.0575491081
 H       -13.6301514792        5.8318909694        1.8893520288
 H       -11.1400780287        6.1554405468       -0.3611255273
 H       -12.6151699908        6.9242319873       -1.0060151820
 H       -12.8075483165        5.5444182400       -0.0208811572
 H        -5.8057719516        8.8867420466       -1.1424248421
 H        -6.8287069655        8.0300473543        0.1722467984
 H        -6.4848169525        9.7883332783        0.2038697636
 H        -7.7810555788       11.2658409204       -1.0239612073
 H        -9.0107467949       10.7059227908       -2.1903750173
 H        -7.2456918438       10.5301181574       -2.7113827513
 H        -4.4771261389        2.0914466240       -0.5883829404
 H        -5.4065799587        2.4406258027        0.9108568248
 H        -4.0886003866        3.4560032323        0.2724486772
 H        -6.2631607160        1.6980684078       -2.3372912692
 H        -4.7422973564        2.8072999251       -2.6838844718
 H        -6.3751744992        3.3427415554       -3.1772674055
 H       -10.1989006545       -0.8760094980        2.6264925827
 H        -8.5311825351       -1.0239440875        2.1861781552
 H        -9.7457445763       -2.3497054468        1.7081320007
 H        -8.6798591551       -1.5911789603       -1.3778075419
 H        -9.5371785547       -2.6879965875       -0.4023595461
 H        -8.0162220798       -2.2003374147        0.1220948330
 H       -13.6087808230       -5.8820931647       -1.7477427948
 H       -13.8838220035       -4.3337801508       -0.9561286927
 H       -12.2457174774       -4.9565818459       -1.4485674992
 H       -11.9530286471       -4.3085369391       -4.7928359297
 H       -13.1136610985       -5.7422290235       -4.6835675589
 H       -11.8163255079       -5.5564350915       -3.5162846882
 Na       -9.3470291169        3.7252524771        2.0345592454
