117

 C       -15.8786082454       -5.3252567633       -2.9209642462
 C       -15.0130967124       -4.0899854580       -2.8746273388
 O       -15.5032302360       -3.0948547269       -3.2371522814
 C       -13.4656903755       -4.2182013142       -2.7168346662
 C       -13.0313826097       -2.7136947759       -2.7368127873
 O       -12.4351635280       -2.2108106382       -3.7138935927
 C       -13.3515628055       -1.9596277267       -1.4037229591
 C       -12.0128516569       -2.0062906232       -0.5205487251
 C       -11.4101965477       -0.6559491512       -0.1085653141
 O       -12.1808222987        0.2273029796        0.3111197966
 C        -9.8812248440       -0.6756380962        0.2647537594
 C        -9.3687593759        0.7151147659        0.2835932004
 O        -9.5137528885        1.3429137267        1.2763314250
 C        -8.9718339439        1.2142957945       -1.0672229293
 C        -8.6059657681        2.6821544782       -1.1840845327
 C        -7.3354127677        3.2613530982       -0.5369531715
 O        -7.4628668593        3.5437531019        0.6127929239
 C        -5.9059300083        3.1887248182       -1.1854575135
 C        -5.6109679335        4.9253860994       -1.4400264645
 O        -5.0718356019        5.4654108165       -0.5475156144
 C        -6.3557279278        5.6666107413       -2.5816147713
 C        -7.5383687421        6.3962002581       -1.9858260351
 C        -7.3360439159        7.9551867674       -2.2814613005
 O        -6.7942370819        8.3303795414       -3.3233739197
 C        -7.7115998836        9.2438052190       -1.2881940732
 C        -8.9869446790        9.0263611398       -0.4654735283
 O        -9.1021878300        7.8889395409        0.0340055702
 C       -10.0092833490       10.0612729225       -0.2578896111
 C       -11.4931238267        9.4228704377       -0.4524604638
 C       -11.9036430625        8.7681170555        0.8974750741
 O       -12.3842482567        9.4889096155        1.7809094917
 C       -12.2081275105        7.2244346040        1.1290171273
 C       -11.1343489384        6.4918869041        2.0491072643
 O       -11.0048696130        5.2531049828        2.0018807449
 C       -10.2255080652        7.4193503846        2.9499114824
 C        -9.5693548786        6.5235287340        4.0991686609
 C        -8.2162299382        5.8233790754        3.7492474108
 O        -7.7880917013        5.9961615458        2.6117689542
 C        -7.5559984245        4.9917524260        4.8560822630
 C        -7.0185444566        3.8634753850        4.0317984335
 O        -7.8565356335        3.0011753657        3.5974394922
 C        -5.5480343484        3.8341323146        3.6289775844
 C        -6.5479767133        5.9831653550        5.4973516428
 C        -8.4721039447        4.5159516666        6.0464915693
 C       -13.5884058123        6.9647821907        1.8412682784
 C       -12.2686584654        6.5773246932       -0.2993451192
 C        -6.5095291557        9.3530097466       -0.2808082835
 C        -7.6128331291       10.5268326448       -2.2269141424
 C        -4.8272724144        2.9313708485        0.0065741311
 C        -5.5843564476        2.1729719247       -2.3697057255
 C        -9.8674062812       -1.3930088699        1.7777353598
 C        -9.0634999375       -1.3531850074       -0.8921908181
 C       -12.9634592066       -4.8389937897       -1.4466822770
 C       -12.8097019707       -4.9063975702       -3.8811243630
 H       -15.9226116710       -5.7120033329       -3.9231357034
 H       -16.8241705479       -5.0485839006       -2.4056231277
 H       -15.7299835471       -6.0998969312       -2.2027778272
 H       -14.2046426942       -2.4575650403       -0.9450994258
 H       -13.7759435672       -0.9521138631       -1.6720862910
 H       -11.2542597527       -2.6096084455       -0.9654502472
 H       -12.1929329288       -2.4828783229        0.4470181458
 H        -9.7105395614        0.9523101628       -1.7515329341
 H        -8.0440343343        0.6000943753       -1.3107018133
 H        -9.3707334134        3.2100568651       -0.7455814516
 H        -8.6722957775        3.1258232218       -2.2028134533
 H        -6.5752719137        5.0383014068       -3.4295730183
 H        -5.6350153032        6.3647494010       -2.9004567916
 H        -7.5972907908        6.3738247954       -0.8617719663
 H        -8.4567942836        5.9885021391       -2.5768355626
 H        -9.9976417098       11.0476252348       -0.9727929334
 H        -9.9238727821       10.3567102383        0.8865963824
 H       -11.6184936345        8.7996874240       -1.3377749831
 H       -12.2002950152       10.1801411371       -0.5604306601
 H       -10.7452915750        8.2635625577        3.3680156230
 H        -9.4435084528        7.6713178165        2.3613746234
 H       -10.2194755476        5.8457817963        4.5630999852
 H        -9.4477747511        7.2029872675        4.9239242198
 H        -5.6067659437        3.5005331668        2.5609953518
 H        -4.9910389302        2.9870838366        4.0209372029
 H        -5.0318940687        4.7677180927        3.8225384703
 H        -6.1591793261        6.6918393372        4.7759080357
 H        -5.6948330815        5.3400640988        5.8189967149
 H        -7.0988326126        6.5167571102        6.3016534211
 H        -8.9449837110        3.5711222007        5.8173661638
 H        -9.3674861595        4.9434073073        6.5100903129
 H        -7.9191416168        4.2091934516        6.8585228547
 H       -14.3969310406        7.5225496170        1.3082332589
 H       -13.3657433098        7.3747882115        2.7934534290
 H       -13.8258085775        5.9351837560        1.8413776194
 H       -11.5297972527        6.9769782340       -0.9901599008
 H       -13.2546804967        6.9082459127       -0.7537692903
 H       -12.2859838242        5.5145627485       -0.2206715997
 H        -5.7538393884        9.6363431959       -0.9158388124
 H        -6.3510110231        8.3451538827        0.0771663058
 H        -6.7676346438       10.0438788173        0.5892727206
 H        -8.0756560871       11.3883782410       -1.8403304231
 H        -8.0769182721       10.2049128824       -3.0962034217
 H        -6.5204457779       10.4305295051       -2.3546591034
 H        -3.9596363020        2.3947031286       -0.3599529151
 H        -5.4276471328        2.3434311681        0.7585027033
 H        -4.4136309371        3.9058575584        0.3576339852
 H        -5.9504481511        1.2413975139       -1.9994406182
 H        -4.5452313139        2.2058264331       -2.6061767501
 H        -6.1869920684        2.4457341655       -3.2395784302
 H       -10.4151715467       -0.6824023600        2.4581679795
 H        -8.9038837098       -1.5079112877        2.1521903343
 H       -10.3578570240       -2.3621785453        1.7504761709
 H        -9.4153228842       -1.2983473908       -1.9031968464
 H        -8.7107463993       -2.3723313190       -0.7190901869
 H        -8.0360017900       -0.9902725942       -0.8849522025
 H       -13.1462489262       -5.9087607450       -1.4925778376
 H       -13.4610873784       -4.3360649432       -0.5802244121
 H       -11.8523646750       -4.6955144040       -1.4012059801
 H       -12.7962900175       -4.3290570346       -4.7270513346
 H       -13.1973488880       -5.8624310001       -4.0582459140
 H       -11.7017745684       -5.0528563316       -3.7115967695
 Na       -9.4239447800        3.4630671148        1.9300959562
