117

 C       -16.1202047986       -5.3173735871       -1.8440621687
 C       -15.2598802789       -4.1209483938       -2.4175192297
 O       -15.8303480776       -3.1982113616       -2.8623302923
 C       -13.6978117674       -4.2973564029       -2.5286956726
 C       -13.0419327427       -2.8723003634       -2.3786101738
 O       -12.0541155380       -2.5363090918       -3.0897797517
 C       -13.5991258394       -1.9277788877       -1.2731150400
 C       -12.6383437320       -1.8312586291        0.0414629666
 C       -11.4364851014       -0.7683649648       -0.1156333963
 O       -11.8168063701        0.3374253015       -0.5080146102
 C        -9.9121513726       -0.8921133829        0.0532459223
 C        -9.3146783012        0.6842267568       -0.1360926411
 O        -9.5758856354        1.4481473485        0.7806999196
 C        -8.6473521944        1.3029807963       -1.4020972882
 C        -8.5298170096        2.7990034704       -1.0819475552
 C        -7.1864256553        3.2536566235       -0.3921866613
 O        -7.2617429072        3.7071497933        0.7333046478
 C        -5.7885455745        3.1884136710       -1.0448289685
 C        -5.4181344350        4.7241023768       -1.2933391148
 O        -4.5802689446        5.1916100581       -0.5743235202
 C        -6.3228328218        5.3881401705       -2.3311755964
 C        -6.9595822294        6.5893964213       -1.6843471241
 C        -7.1152165843        7.9736845033       -2.3663559878
 O        -6.6385043570        8.1465258936       -3.4827390695
 C        -7.5217710397        9.1890505003       -1.4425488405
 C        -8.8085310349        8.7959798301       -0.8260595795
 O        -9.0302962068        7.6974145330       -0.2734542481
 C        -9.9260941334        9.8732470784       -0.6626073144
 C       -11.3622121039        9.2389740295       -0.7018131484
 C       -11.9044442175        8.6677041418        0.6528417017
 O       -12.0536880191        9.4813532599        1.5723765835
 C       -12.2124260491        7.2042673912        0.8798211422
 C       -11.1587169320        6.6200999362        1.8981377861
 O       -11.0304945766        5.4091990322        1.8102854962
 C       -10.3618989086        7.6015522671        2.8047475079
 C        -9.7975593690        6.9867789188        4.0547682919
 C        -8.4753046916        6.0174254328        3.7847420713
 O        -8.1166501291        6.0097448112        2.5871443797
 C        -7.7666154105        5.2522719746        4.9447332393
 C        -7.1900584304        3.9492758163        4.2223421396
 O        -7.9501158412        3.0646448044        3.8030048907
 C        -5.6631454704        3.8773527525        3.8071821170
 C        -6.6169987820        6.0719013096        5.5527071606
 C        -8.6876969583        4.6839062118        6.0680973383
 C       -13.6083843837        7.1295199960        1.6363018327
 C       -12.2091206623        6.3598862462       -0.3178582292
 C        -6.4603932006        9.3451663471       -0.2977220260
 C        -7.5082723259       10.6763373718       -2.0772478376
 C        -4.7149131119        2.4887609601       -0.1571007120
 C        -5.8892694258        2.5156841283       -2.3496683230
 C        -9.5827271975       -1.1828115760        1.6148427196
 C        -9.4810972302       -1.7930565873       -1.0758620818
 C       -13.0407251595       -5.1734426965       -1.4937129756
 C       -13.3250361055       -4.9104911168       -3.8999201751
 H       -16.8780436707       -5.5954600944       -2.5346766923
 H       -16.5852671524       -4.9894917929       -0.8344932440
 H       -15.6201145443       -6.2285343963       -1.5045866638
 H       -14.6399533653       -2.3153153964       -1.0448717084
 H       -13.8220698706       -0.9239864694       -1.6006902089
 H       -12.2830821038       -2.8528347395        0.4126781941
 H       -13.3302676187       -1.4066364490        0.7989398164
 H        -9.1504522355        1.2355260748       -2.3661310955
 H        -7.6695252022        0.8504408502       -1.5182236390
 H        -9.3608501610        3.2132601020       -0.5910691859
 H        -8.6001109990        3.4060883564       -1.9954163063
 H        -6.9575585198        4.5034958711       -2.6744713138
 H        -5.6862899010        5.6605590850       -3.1871259554
 H        -6.3832039206        6.8393452021       -0.8495787047
 H        -7.9496772741        6.3384777516       -1.3488044143
 H        -9.9935929960       10.5750414876       -1.5550019822
 H        -9.8206987379       10.4481797469        0.2381447312
 H       -11.4521020441        8.4178444033       -1.4674420599
 H       -12.1569567271        9.9905257776       -1.0314528958
 H       -11.0442733882        8.5011627066        3.0911339423
 H        -9.5677557779        7.8884532314        2.0441095727
 H       -10.5882395137        6.4627441668        4.6919386458
 H        -9.4693641774        7.8163491469        4.7966700014
 H        -5.6099108052        3.4267896555        2.8686455631
 H        -5.1812150398        3.0686673152        4.4011851052
 H        -5.1179643350        4.7607225178        3.9890673593
 H        -5.8809465382        6.5421168227        4.8527311506
 H        -6.2682609298        5.3997567787        6.2877037841
 H        -7.0527450335        6.9386907928        5.9684958138
 H        -9.7867590897        4.6093243733        5.8770258822
 H        -8.6399405614        5.2410128944        7.0494378698
 H        -8.5377209145        3.7574303483        6.4710146282
 H       -14.3828169564        7.1954084901        0.9058468828
 H       -13.5763247272        7.9287412383        2.3731771960
 H       -13.6804472911        6.1890380720        2.0369901763
 H       -11.1861156007        6.2038093991       -0.5969855917
 H       -12.6165124723        6.7893224396       -1.2444076448
 H       -12.6676945668        5.4476920135        0.0046441574
 H        -5.5308278736        9.4257067925       -0.7419767263
 H        -6.5504770717        8.4534106070        0.3361683590
 H        -6.8556095634       10.1782291782        0.2791655798
 H        -7.6360672053       11.2330116141       -1.1372910745
 H        -8.3956135654       10.7402794706       -2.7133883044
 H        -6.4913291208       10.8526515333       -2.4828939221
 H        -3.7650080371        3.0316445536       -0.2259573226
 H        -4.5794359919        1.4623595264       -0.3730472660
 H        -5.0517343766        2.7386524685        0.7980826237
 H        -5.8913265128        1.4045068010       -2.2999222139
 H        -5.0498334631        2.8404119126       -3.0001298593
 H        -6.8795481640        2.7203716515       -2.8995430422
 H        -9.8714268427       -0.2149102589        2.1142634855
 H        -8.5209563155       -1.4302611009        1.7939506009
 H       -10.1288803708       -1.9855463067        2.0072595447
 H        -9.7672410014       -1.4019983905       -2.0353500934
 H        -9.7760788960       -2.8495192965       -0.9495602873
 H        -8.4296924130       -1.9269516673       -1.1284840012
 H       -13.4140966840       -6.1213645580       -1.7831412102
 H       -13.3502810444       -4.9008588756       -0.4734314398
 H       -11.9737141606       -5.0973780714       -1.4996048310
 H       -14.0724370331       -4.8327267093       -4.6447590026
 H       -12.9711231707       -5.9744457744       -3.7859965386
 H       -12.5836558869       -4.2698444203       -4.5035176480
 Na       -9.2027036237        3.8325671735        2.0386066040
