117

 C       -16.1555057162       -5.0633520967       -0.7196234118
 C       -15.5153201455       -4.1919682814       -1.7070726559
 O       -16.0908878853       -3.2895160014       -2.1647576315
 C       -13.9230931857       -4.4652374726       -2.0723797655
 C       -13.1375584554       -3.2027416056       -1.4829252876
 O       -12.0332847083       -2.9521213878       -1.9800509155
 C       -13.7446570668       -2.0546800132       -0.6772597273
 C       -12.6599848881       -1.4017140416        0.0706442223
 C       -11.6317412781       -0.5505998762       -0.6410926272
 O       -11.7662836490        0.2967613029       -1.5882495716
 C       -10.0992570722       -0.5769552001       -0.1031728285
 C        -9.5772380095        0.8638680119        0.0591921475
 O        -9.6193025558        1.4094212646        1.1453562381
 C        -9.1123564454        1.6039301341       -1.2595293567
 C        -8.3664342538        3.0121585811       -1.4270172778
 C        -6.9816836180        3.0064212291       -0.8144834698
 O        -7.0921895964        3.2458604760        0.3681404037
 C        -5.5671368533        2.8391562480       -1.4713590807
 C        -4.8335306025        4.4869797706       -1.3668432596
 O        -3.7769985683        4.6995746159       -0.8363374010
 C        -5.6658301551        5.6191763075       -2.0734654901
 C        -6.0647967571        6.6912387889       -1.0730581831
 C        -6.6571270694        7.9716973049       -1.9419747470
 O        -6.7479661705        7.8611810753       -3.1545774845
 C        -7.3536971241        9.3171106065       -1.3518762427
 C        -8.8300877798        8.9042038777       -1.0973823198
 O        -9.1425913844        7.9482557262       -0.3919564455
 C       -10.0748653191        9.5846268073       -1.7437560890
 C       -11.4938431593        9.1165061390       -1.3721449710
 C       -11.6517022444        8.6678197246        0.1605017738
 O       -11.4911696522        9.5476558188        1.0385265772
 C       -12.1035284027        7.2163282008        0.6235347637
 C       -11.0390778425        6.6581650671        1.7649032247
 O       -10.6748305815        5.4998216523        1.7658535637
 C       -10.5239241210        7.7441816049        2.8341613909
 C        -9.9885733957        7.0877898834        4.0732210148
 C        -8.7237881896        6.1630652101        3.7934372318
 O        -8.2730979343        6.1855357709        2.6483136532
 C        -8.0397248408        5.3254470240        4.9196531746
 C        -7.4479681689        4.0069668035        4.4100965221
 O        -8.1646042915        3.1474702628        3.8877984967
 C        -5.9103815264        3.8634664819        4.5876225987
 C        -7.0522224064        6.3504259155        5.5105197603
 C        -8.9295905314        4.9342647777        6.1247392659
 C       -13.4822199231        7.3733824014        1.3932094432
 C       -12.1771448271        6.1046517225       -0.4908250512
 C        -6.9600617669        9.9428887109        0.0575510424
 C        -7.3056040404       10.4837681011       -2.4181632948
 C        -4.6865133279        2.0367720891       -0.3892766718
 C        -5.5036980397        2.2175848131       -2.9191262385
 C       -10.1427515575       -1.2507644309        1.3093101165
 C        -9.3199520937       -1.2603729920       -1.2716114785
 C       -13.3608616183       -5.7380472674       -1.5388912376
 C       -13.7838591955       -4.4546619814       -3.6367953320
 H       -16.9499810084       -4.5785958839       -0.1343059619
 H       -15.5001398332       -5.3723990274        0.1375510064
 H       -16.5595945318       -5.9339473186       -1.1830061180
 H       -14.4775833683       -2.4345933076        0.0346814385
 H       -14.3522602897       -1.4247224637       -1.3258760518
 H       -12.1223713513       -2.2258525602        0.6130886817
 H       -13.1334311138       -0.7018987043        0.7714003803
 H       -10.0331832500        1.7926176538       -1.8297894485
 H        -8.4994757784        0.9504721804       -1.9477159320
 H        -8.8036828686        3.8676511753       -0.9485886638
 H        -8.4325070953        3.2592237845       -2.5731993214
 H        -6.4901634631        5.2139205991       -2.7680302727
 H        -4.8808612934        5.9915253590       -2.7735614785
 H        -5.3146319285        7.0783754033       -0.4831629608
 H        -6.8496311116        6.3936796055       -0.4237544304
 H       -10.0898307213        9.5175589704       -2.7712154343
 H       -10.0338788826       10.6888551091       -1.5430168643
 H       -11.8664009987        8.2307779272       -1.9466268552
 H       -12.2592630611        9.9133058991       -1.5325385977
 H       -11.3466940810        8.5813597073        2.8557528616
 H        -9.6590654539        8.2733017242        2.2885010171
 H       -10.7572978837        6.4960781943        4.6479117426
 H        -9.5552604409        7.9084860881        4.7830116956
 H        -5.7748166720        2.7365244018        4.6481463867
 H        -5.5835313258        4.1785657981        5.5853749195
 H        -5.2394897107        4.3747714603        3.8785228359
 H        -6.2914017845        6.6750034556        4.8318417152
 H        -6.7851379994        5.9243425907        6.5016606915
 H        -7.5897943828        7.2916559388        5.7428079146
 H        -9.3335809568        3.9317014566        5.9034039768
 H        -9.8255250989        5.4382766361        6.5537923948
 H        -8.4080749838        4.6831392044        7.0500675293
 H       -14.2917306747        7.7599984694        0.6795657319
 H       -13.2636459690        8.1061367379        2.1284206636
 H       -13.7070142739        6.3479016876        1.8755689460
 H       -11.3245493127        5.9960962839       -1.1968332500
 H       -13.1488496898        6.1208691973       -1.1103477315
 H       -12.1782872993        5.1706368469        0.1042697474
 H        -5.9168189159        9.8423004842        0.1314848756
 H        -7.4912723565        9.4747034576        0.9135995400
 H        -7.2237440629       11.0426914238       -0.0658067415
 H        -7.7243964846       11.3677650330       -1.9962588402
 H        -7.6537438615       10.0621610410       -3.3240259532
 H        -6.1792596302       10.7008409748       -2.4255627964
 H        -3.7589861649        1.7759558174       -0.8557809034
 H        -5.1578733490        1.0429908971       -0.2026299564
 H        -4.6265193588        2.6703259950        0.4913152859
 H        -6.1348052961        1.3749718229       -3.0458314983
 H        -4.5448547990        1.7724515199       -3.0045299395
 H        -5.6979267141        2.8874367787       -3.7005572740
 H       -11.1972444775       -0.9974017880        1.6918236669
 H        -9.4943629647       -0.7746631167        2.0032274574
 H       -10.0590975765       -2.3568639551        1.2676362332
 H        -9.6081217092       -1.0498300458       -2.3004447741
 H        -9.3221842408       -2.4096352336       -1.2507287234
 H        -8.2465354848       -0.9301295338       -1.3123653260
 H       -14.1207350507       -6.5525577906       -1.5629001752
 H       -13.1250218649       -5.5610654219       -0.4285982735
 H       -12.3560360793       -5.9620958588       -2.0189834525
 H       -13.8085575676       -3.4580468625       -4.0156793109
 H       -14.4454840464       -5.0515460607       -4.2578345801
 H       -12.7432289297       -4.8219662739       -3.9393961058
 Na       -9.0543852901        3.5776089591        1.7596549968
