117

 C       -16.1837621031       -4.9942448030       -0.2508026306
 C       -15.5255416703       -4.1929503501       -1.3607120046
 O       -16.2084673854       -3.2429670031       -1.8575237411
 C       -14.1145310518       -4.4416193931       -1.8306704209
 C       -13.1201272286       -3.2789989897       -1.3083083701
 O       -11.8931388514       -3.3951358861       -1.4378909422
 C       -13.8034416124       -2.0099481887       -0.8061845739
 C       -12.9910007816       -0.9844092289        0.1129458756
 C       -11.6970619352       -0.4972428774       -0.7139333877
 O       -11.9445907640        0.0123218627       -1.7110846511
 C        -9.9825160397       -0.4983891689       -0.2008154892
 C        -9.6518530788        1.0532618414       -0.3878602948
 O        -9.6782695197        1.8422456355        0.6039633826
 C        -9.2967253979        1.7453025988       -1.6237688507
 C        -8.3376202963        2.9031463017       -1.3230940567
 C        -6.9522832602        2.9928173468       -0.5822778907
 O        -6.8288909253        3.3594646197        0.6145486195
 C        -5.6156050952        2.8299173514       -1.3778075872
 C        -4.8793007146        4.4012349537       -1.1755409210
 O        -3.6957509071        4.3150270197       -1.1234657560
 C        -5.6152189894        5.7066463559       -1.5385514080
 C        -5.9227481020        6.9710025663       -0.8041849415
 C        -6.6927197324        7.9349416368       -1.7994481871
 O        -6.8366487291        7.7103130107       -2.9852609144
 C        -7.4402703702        9.2403083840       -1.3443577536
 C        -8.9702407771        8.6887521567       -1.2114108800
 O        -9.1545683560        7.8484433205       -0.3589462834
 C        -9.9885008084        9.1878960258       -2.1290621428
 C       -11.4014812248        8.6528565779       -1.7360089026
 C       -11.4801029981        8.7416583767       -0.1734470988
 O       -11.2649358679        9.6782293282        0.5177219068
 C       -11.8844692232        7.3267732985        0.4531529513
 C       -10.9452462870        6.7423239504        1.4924054471
 O       -10.7158013677        5.5245502733        1.5256142751
 C       -10.3647964731        7.6990519006        2.6590503806
 C       -10.1538974201        6.9107113222        3.9978701726
 C        -8.8831430961        6.0171293537        3.8623588729
 O        -8.2740409593        5.8790947553        2.8350157306
 C        -8.1461210921        5.3892573849        5.1140861890
 C        -7.4014624155        4.1063509084        4.5329150372
 O        -7.9607114999        3.4222831782        3.7223589505
 C        -6.0290043162        3.6072161499        5.0533902308
 C        -7.0705967984        6.4444237432        5.5409904316
 C        -9.1641423202        5.0259036574        6.2168121394
 C       -13.3362831980        7.6060426578        1.1380453020
 C       -12.0820355149        6.1859229906       -0.6390138586
 C        -6.9540110254        9.7399473447       -0.0121353990
 C        -7.2811483653       10.3503837962       -2.4625131490
 C        -4.6448155736        1.8588414930       -0.6393678720
 C        -5.7958115820        2.5204775418       -2.8553927680
 C        -9.7136295471       -0.8184383280        1.2372900733
 C        -9.1282361625       -1.5435951944       -0.9418537450
 C       -13.5462281815       -5.8421121728       -1.4920214709
 C       -14.1452830430       -4.2009698528       -3.3769335952
 H       -16.4818622250       -4.4085359709        0.5802992779
 H       -15.6282597132       -5.6570828224        0.3980846201
 H       -17.0821875966       -5.4834480024       -0.6757113532
 H       -14.7665625655       -2.2478906978       -0.2696110215
 H       -14.1573057842       -1.5548108929       -1.7696663421
 H       -12.7156754260       -1.5640571494        0.9955687039
 H       -13.6361972347       -0.0950587108        0.3426987600
 H       -10.1734511685        2.1687666458       -2.1239782401
 H        -8.8727614112        1.0937538791       -2.3229456021
 H        -8.9415758163        3.7194896786       -0.8763619211
 H        -8.0433967781        3.2824411525       -2.2213427755
 H        -6.4797468419        5.3188215822       -2.0009847951
 H        -5.0158058042        6.0313742158       -2.3937907996
 H        -4.9860901863        7.6237366392       -0.5812396315
 H        -6.4572308670        7.0322910328        0.1900114993
 H        -9.7432411069        8.8249840462       -3.2647003975
 H        -9.9502033323       10.2682311538       -2.1528981217
 H       -11.7144769967        7.7034314521       -2.0795200969
 H       -12.1524116514        9.3591418306       -2.0950227312
 H       -11.0419968134        8.4761118079        2.7771827157
 H        -9.5222205132        8.1819571476        2.2925296362
 H       -10.9440371847        6.2108241014        4.2609609912
 H       -10.0318439245        7.5931447658        4.7622220476
 H        -5.8247287148        2.6130732931        5.1633178577
 H        -5.7405218212        4.2253288112        5.9195975536
 H        -5.4138751310        4.0644484026        4.3097857872
 H        -6.4824090795        6.3097613140        4.5588636337
 H        -6.4654603647        6.1716547921        6.3657193839
 H        -7.3786099655        7.4558205358        5.6891345429
 H       -10.2426770787        4.9380452830        5.9682995851
 H        -9.2419602411        5.7796869904        6.9827124286
 H        -9.0304644518        4.1120247194        6.7879805957
 H       -14.1087210709        7.7928113135        0.4482336472
 H       -13.2077936715        8.4772015390        1.7733718339
 H       -13.4604843164        6.8358320058        1.7605312793
 H       -11.0453376741        5.9560526010       -0.8423857524
 H       -12.7050433338        6.2677424253       -1.4893997130
 H       -12.3868105684        5.2234563768       -0.2253880334
 H        -6.1166703967       10.4752363735       -0.0977790359
 H        -6.6074991231        8.8427954158        0.4640820724
 H        -7.7260024040       10.1306598490        0.5420645307
 H        -7.3571101356       11.2822479778       -1.8370957408
 H        -8.1459848083       10.1441497356       -3.1536572388
 H        -6.3661251143       10.3018285360       -2.9788569006
 H        -3.8867022583        1.5340002919       -1.3875214120
 H        -5.1251427002        0.9848661275       -0.3558489429
 H        -4.3072508984        2.3735558183        0.2301414612
 H        -6.1366483566        1.4402936204       -2.9721217938
 H        -4.8699325814        2.5097594374       -3.4988187854
 H        -6.6324188373        3.2214274799       -3.2634227763
 H        -9.9415948405       -0.0420038509        1.8993019497
 H        -8.5682844919       -0.8215028760        1.2677130887
 H       -10.2027201762       -1.7005591122        1.5321178930
 H        -9.1002313547       -1.4328016092       -2.0238868657
 H        -9.5046776052       -2.5082290797       -0.8727764980
 H        -8.1304500746       -1.4863498202       -0.6408010641
 H       -14.0538148486       -6.5970534511       -2.0934129082
 H       -13.6669180992       -6.1758094803       -0.4925821860
 H       -12.5386493657       -5.7377336249       -1.7847979302
 H       -14.5168532597       -3.2197363575       -3.7672268695
 H       -14.8717835701       -4.9451149790       -3.8436011223
 H       -13.2158439789       -4.4551878420       -3.8959854093
 Na       -8.8847470230        3.7898494710        1.6766225108
