117

 C       -16.1380499721       -4.9497886893       -0.0589904217
 C       -15.6489316752       -4.0498725553       -1.1847709299
 O       -16.3374463182       -3.2614628505       -1.6863654227
 C       -14.1410917648       -4.3681583248       -1.7638240551
 C       -13.1345564121       -3.2957080299       -1.1390051096
 O       -11.8782488016       -3.5775042188       -0.9959653767
 C       -13.6237356310       -1.9464892108       -0.7586822114
 C       -12.7233942958       -1.0943266743        0.0768633166
 C       -11.5779747425       -0.5034649004       -0.6980880628
 O       -11.7365017402       -0.1244770800       -1.8917828327
 C       -10.0568375690       -0.3347618969       -0.1645315986
 C        -9.5313001698        1.1411439697       -0.4237578251
 O        -9.8370921098        1.9270484137        0.5600109169
 C        -8.8821113662        1.7851996598       -1.7758358450
 C        -8.3597343994        3.1724677755       -1.3969935742
 C        -7.0258860584        3.0378411549       -0.5730003134
 O        -7.1442634645        3.2514022249        0.6339010844
 C        -5.6381465537        2.9159129847       -1.2753388969
 C        -4.7924739190        4.3036555732       -1.2118187593
 O        -3.6104584777        4.4214232642       -1.1268806369
 C        -5.7486105794        5.5149103131       -1.6982568164
 C        -5.8333322238        6.8010572989       -0.8885553960
 C        -6.5459762170        7.8110571488       -1.8343473384
 O        -6.7421580424        7.4190997974       -3.0041478246
 C        -7.4158746560        9.1022166172       -1.2222652245
 C        -8.8566687570        8.6101805044       -1.2437456720
 O        -9.2806076395        7.8567781126       -0.3724339191
 C        -9.8166680351        9.1519261699       -2.3401115925
 C       -11.3014543261        8.6641159569       -1.9469634581
 C       -11.4342902219        8.5829251786       -0.4152665068
 O       -11.1801570244        9.5977027496        0.2471970029
 C       -11.8934149460        7.2756429254        0.3161988958
 C       -10.9783953318        6.7495222368        1.4154529784
 O       -10.6715783718        5.5703846037        1.3582457327
 C       -10.4486832071        7.6608370026        2.5969009573
 C       -10.1216728397        6.7317070101        3.8378488228
 C        -8.7724812136        5.9766702088        3.8409816815
 O        -8.2453487172        5.7718077143        2.7248431498
 C        -8.1299861632        5.4222375020        5.1409894939
 C        -7.4388369150        4.0678118578        4.7127408752
 O        -7.8420653163        3.4831256989        3.7441345109
 C        -6.1524569167        3.5626147351        5.3283753479
 C        -7.1460426155        6.4331132683        5.6364987335
 C        -9.2134520184        5.1410506556        6.2734066167
 C       -13.2270823242        7.7027749058        1.1099346522
 C       -12.1294808399        6.0428887459       -0.5854791810
 C        -6.9006449968        9.7681585738        0.1023910621
 C        -7.3116746662       10.2740938222       -2.3594049836
 C        -4.7426003126        1.7969376525       -0.7324316453
 C        -5.9966566774        2.8501103743       -2.7845649697
 C        -9.9197795606       -0.6087680706        1.4333213511
 C        -9.4150921850       -1.3604835659       -1.1337876157
 C       -13.6046725109       -5.7400225244       -1.4512428136
 C       -14.3624074397       -4.1445709524       -3.2624334893
 H       -16.1512611089       -4.6231625770        0.9353367169
 H       -15.4475167029       -5.7818015648        0.2768836162
 H       -17.0681189596       -5.3515025113       -0.3702440942
 H       -14.6417091624       -2.0063259844       -0.2274950435
 H       -13.8114088202       -1.4833960857       -1.6762377821
 H       -12.4136804024       -1.6945815065        0.9235331762
 H       -13.3159651421       -0.2694392603        0.3883111360
 H        -9.7710438462        1.7957332110       -2.5069619045
 H        -8.1541631912        1.1561188255       -2.2411602907
 H        -9.1136329489        3.6430278381       -0.7451531164
 H        -8.0730416985        3.9686811127       -2.1901486327
 H        -6.7191452381        5.0488999792       -1.6198995412
 H        -5.6267977829        5.6809316885       -2.6972064497
 H        -4.8258890898        7.2483158874       -0.6233432659
 H        -6.3619436063        6.8122879991        0.1194124645
 H        -9.5927377959        8.7020276395       -3.2431833616
 H        -9.7080509834       10.1496483415       -2.4776520191
 H       -11.5390196222        7.6975125362       -2.2815698190
 H       -12.0588395299        9.3267878881       -2.3338195654
 H       -11.1318848668        8.4949056610        2.8352388968
 H        -9.6785245396        8.1828748508        2.1137012701
 H       -10.8750375567        6.0004379925        4.0780254794
 H       -10.0208472821        7.4389032856        4.6059297514
 H        -6.0874831919        2.4565674746        5.3093105926
 H        -6.0679530054        3.9957778379        6.3485159613
 H        -5.3115178882        3.9229424197        4.7726549188
 H        -6.5123026981        6.7101253755        4.7475751311
 H        -6.4788118680        6.1664306313        6.4858934329
 H        -7.7599654600        7.2636104375        5.9414288009
 H       -10.3052759313        5.2776395732        6.1956761443
 H        -9.0758105185        5.6189167168        7.2641999863
 H        -9.1179320728        4.1522044384        6.4867523275
 H       -14.0812210679        8.1633002737        0.4875340290
 H       -12.8758403736        8.4519101643        1.7528810104
 H       -13.4817791915        6.8606187338        1.8460272802
 H       -11.1872594235        5.8090872245       -0.9760888312
 H       -12.9442049673        6.0873054952       -1.3179746073
 H       -12.3643952619        5.1219824739       -0.0996437045
 H        -6.2407680685       10.5519160173       -0.1398162066
 H        -6.4177904259        9.0203005400        0.7607381772
 H        -7.7614514444       10.2002572602        0.6475044507
 H        -7.7130662676       11.1418083375       -1.8475316053
 H        -7.8272016468        9.9357368669       -3.2196273226
 H        -6.2640047995       10.4135557175       -2.6388771867
 H        -3.7674863043        1.8441162298       -1.2822325341
 H        -5.1597183671        0.7987103962       -0.8275938297
 H        -4.7271643402        2.0225906090        0.3367778198
 H        -6.1088274870        1.7990571289       -3.0947741461
 H        -5.0417144774        3.0702587217       -3.2863955988
 H        -6.8103561120        3.4952730594       -3.2007821150
 H       -10.0545201636        0.3332639970        1.9995847648
 H        -8.8776169393       -0.8242007232        1.6389396586
 H       -10.6531251987       -1.2462557371        1.7810492547
 H        -9.5976438423       -1.1272510100       -2.1534160772
 H        -9.9555949908       -2.3239826186       -1.1012471405
 H        -8.3988066812       -1.5387508245       -1.0055546509
 H       -13.9819138354       -6.4057882322       -2.1831263237
 H       -13.9000831470       -6.2028492326       -0.5501248609
 H       -12.5611456589       -5.6946098818       -1.6065983120
 H       -15.0644284681       -3.4113352171       -3.3619532365
 H       -14.9113479040       -4.9833435674       -3.6370050958
 H       -13.5888710343       -4.0208003644       -4.0472865229
 Na       -8.8548403150        3.9876480482        1.5845987006
