117

 C       -13.2196776028       -0.6917287916        6.5151901599
 C       -12.8188832050       -0.7114908051        5.1016465901
 O       -12.3839567037        0.2903966040        4.5208206713
 C       -12.8383149812       -2.2328788443        4.4324539761
 C       -11.7752668422       -2.2430375134        3.2013244057
 O       -12.0838049509       -2.0200522000        2.0698842024
 C       -10.2621199564       -2.3498240443        3.5539107928
 C        -9.5155099254       -1.2607048435        2.8752492213
 C        -8.0468773721       -1.7713000104        2.8522714987
 O        -7.8525048888       -2.9721425182        2.8745090195
 C        -6.8181247897       -0.8080064456        2.4515045631
 C        -7.1603421442        0.7454784495        2.7846220394
 O        -7.3891932347        0.9545175650        3.9597339033
 C        -7.0001402784        1.8310919941        1.6621488928
 C        -6.6956908173        3.2916346085        2.2315693808
 C        -7.8379368796        4.2805952773        1.9302077249
 O        -7.6597195332        5.1267746114        1.0610517873
 C        -9.2494044018        4.3554410687        2.7789936410
 C       -10.2926541306        4.3498310746        1.7415301771
 O       -10.4229921584        5.2507532477        0.9575670790
 C       -11.1492143097        3.0059153327        1.5895713729
 C       -11.6357789889        2.8139190125        0.1160720774
 C       -10.4601715029        2.6663008994       -0.8427895260
 O        -9.2958058698        2.6016232662       -0.4901403545
 C       -10.7279768343        2.6166679132       -2.3957535416
 C       -10.1329304138        3.7999693322       -3.1892629294
 O        -9.6476105468        4.8181537819       -2.6646218591
 C       -10.0179133529        3.7193264104       -4.7108963777
 C        -9.5074775447        4.9877456965       -5.2784178145
 C       -10.6613286466        6.0383639306       -5.3041520309
 O       -11.7523347993        5.7366263457       -4.8893511797
 C       -10.4330201481        7.4130354140       -5.9583138996
 C       -10.3724316662        8.4385591667       -4.6835159013
 O        -9.2518811405        8.6353411887       -4.2186558973
 C       -11.6471306173        8.8570285390       -3.9686498891
 C       -11.2621437713        9.4937402602       -2.6437662751
 C       -10.1398909011        8.8976233958       -1.8104832175
 O       -10.2851617917        7.7409608874       -1.5270320723
 C        -8.8669819942        9.6439939903       -1.2644315142
 C        -7.7073568244        8.9507349935       -2.0358189546
 O        -7.4934780734        7.7781118952       -1.8150044566
 C        -6.8506040043        9.7660835064       -2.9086093477
 C        -9.0731906622       11.2091640310       -1.3957461566
 C        -8.8220877048        9.3208795149        0.2781858759
 C        -9.0653265062        7.4849301176       -6.6687972556
 C       -11.5493294266        7.6940972441       -6.9769441254
 C       -10.0164011806        1.2703741584       -2.9042701814
 C       -12.2304610633        2.4662819175       -2.6440740895
 C        -9.3211774060        3.1496830749        3.7705420651
 C        -9.0986236878        5.6667825586        3.6035018604
 C        -5.6368494186       -1.2342518013        3.3899524336
 C        -6.5552538263       -1.1076737194        0.9925268462
 C       -12.4577122832       -3.2915071691        5.4948824111
 C       -14.1882920999       -2.7021860699        3.8188674994
 H       -14.2129103622       -0.9013425712        6.6501143165
 H       -13.0285370461        0.3050077261        6.9087994987
 H       -12.7795336407       -1.3834116821        7.1566166145
 H        -9.9795074274       -3.3569879381        3.1342775991
 H       -10.1209295724       -2.3009341780        4.5674831271
 H        -9.6531334121       -0.2527825044        3.3872410129
 H        -9.8514418660       -0.9030821639        1.8366631647
 H        -7.9731589894        1.9511819208        1.1519122166
 H        -6.1809115054        1.5206758404        1.0244052688
 H        -5.7555691461        3.7898762916        1.7900266561
 H        -6.5589820702        3.3255399737        3.3275415357
 H       -12.0151106184        2.9598386607        2.2949371309
 H       -10.4575220915        2.1496549944        1.8183301279
 H       -12.3496312156        3.6995652843       -0.0677075314
 H       -12.1452794828        1.8404546345        0.0505053896
 H       -10.8237291971        3.3365418867       -5.3039152340
 H        -9.3039750061        2.9668547271       -4.8000926694
 H        -9.2851990118        4.7694534931       -6.2935074936
 H        -8.6167190447        5.2684366324       -4.7399881995
 H       -12.0226174442        7.9197002617       -3.7613127315
 H       -12.4618605277        9.3765113833       -4.4256274404
 H       -12.1759735790        9.3716863545       -2.0589724221
 H       -11.1179245754       10.5387319083       -2.7751990286
 H        -7.1335539486        9.8628306512       -3.9890638411
 H        -5.8619162930        9.2379447355       -2.9317042075
 H        -6.6953653485       10.7913902964       -2.5257679692
 H       -10.0521201290       11.5037699664       -1.0470604946
 H        -9.0462616779       11.5253607543       -2.3955885426
 H        -8.4355736462       11.8890894263       -0.7025985298
 H        -7.7804410675        9.4176836906        0.6721686093
 H        -9.0289630485        8.2689259578        0.5069908078
 H        -9.3137804344       10.0237309106        0.8868953719
 H        -9.0901748351        6.8018558930       -7.5085032601
 H        -8.2230475694        7.3825705321       -5.9643974591
 H        -8.8807662464        8.5595022226       -7.0220006077
 H       -11.5746389016        6.9100664901       -7.7861643194
 H       -11.3534786477        8.7366189704       -7.3050137823
 H       -12.5667713926        7.7312099816       -6.6001301887
 H        -9.2066797623        1.0014009453       -2.2349582546
 H        -9.6865294469        1.3708340392       -3.8847430793
 H       -10.8182351864        0.5311072495       -2.8818320793
 H       -12.7608798747        3.1934282306       -2.0998164535
 H       -12.6818282904        1.5840299259       -2.2242146178
 H       -12.4522028136        2.4609347904       -3.7392959342
 H        -9.0595722845        2.1810938722        3.4452565818
 H       -10.3806708005        2.9603773218        4.1112632743
 H        -8.8233374413        3.2967512433        4.7361410743
 H        -8.6384590196        6.4734421056        2.9994064252
 H        -8.6236369850        5.5202437769        4.5500024924
 H       -10.0586998576        6.1492762595        3.8211169271
 H        -5.6364847551       -2.3276338064        3.4718464587
 H        -5.7377421422       -0.7753085555        4.3971184949
 H        -4.6489233072       -0.8813673061        2.9992404439
 H        -7.2361035384       -0.4817993820        0.3747170555
 H        -6.6622869304       -2.1859699115        0.7737528628
 H        -5.5238378231       -0.7245642449        0.7881220254
 H       -11.4850917500       -3.0547241685        5.8958659256
 H       -12.5932959026       -4.2280887418        4.9491323795
 H       -13.2402681740       -3.4323536306        6.2786805220
 H       -14.6070987520       -2.0396139737        3.0696504739
 H       -14.8863698745       -2.5386116478        4.6817806466
 H       -13.9690475495       -3.7133963360        3.5061213454
 Na       -8.9156372410        6.0042365112       -0.6900188887
