117

 C       -16.0627491941       -4.9018406789        0.3929363980
 C       -15.6453289052       -4.1359314453       -0.8377537585
 O       -16.4487392947       -3.2029848449       -1.2250068053
 C       -14.3084443275       -4.2704843761       -1.5983912964
 C       -13.3705698750       -3.3683457885       -0.7533141043
 O       -12.3819008983       -3.7698607399       -0.2921587734
 C       -13.6647609269       -1.8796028508       -0.8103764044
 C       -12.4114342698       -1.1698870293       -0.0631159384
 C       -11.4770577654       -0.3631184700       -0.9857217315
 O       -11.8047557751       -0.0624805230       -2.0641050181
 C       -10.0642546130       -0.1011036135       -0.2380069355
 C        -9.6585268451        1.4614746319       -0.2136185453
 O       -10.0941387079        2.2710097108        0.5194715956
 C        -8.6400245409        1.6894494379       -1.3817804230
 C        -8.2696724013        3.1530923357       -1.5442292526
 C        -7.0311816886        3.0845788385       -0.7023141185
 O        -7.0575621572        3.1085851173        0.5218572512
 C        -5.7758723700        2.9270966666       -1.5017880843
 C        -4.9938589489        4.3790861235       -1.2603638764
 O        -3.8595668568        4.4214795381       -0.8652801386
 C        -5.7305430569        5.6255283430       -1.7535938229
 C        -5.6419885142        6.9207587146       -1.0643526715
 C        -6.5104840238        7.8404728412       -1.9278700881
 O        -6.7303218074        7.5502655766       -3.0582784170
 C        -7.2367482469        9.0762588228       -1.3320379905
 C        -8.6851555805        8.5032772141       -1.3381892384
 O        -8.9920196856        7.7460172650       -0.4368142926
 C        -9.7148877464        8.8685638039       -2.3676198176
 C       -11.0390993021        8.2947700020       -2.1410464677
 C       -11.4175806428        8.4561814646       -0.6088544698
 O       -11.2651824919        9.4864193837       -0.0491232392
 C       -12.0610554748        7.2282649698        0.1324285117
 C       -10.9847952937        6.6472902969        1.1801773881
 O       -10.5427665861        5.5061019164        1.0598764969
 C       -10.4418000523        7.4821496569        2.4237189938
 C       -10.1121082929        6.7140043702        3.7180239675
 C        -8.7136415125        6.0670152855        3.7368372820
 O        -7.9822605532        6.0977181733        2.7948904546
 C        -8.1653779363        5.4244492633        5.1218447375
 C        -7.3871844270        4.0400951714        4.8342380223
 O        -7.7334310033        3.3710177327        3.8780348467
 C        -6.6132677082        3.5536392562        6.0174027642
 C        -7.1732997101        6.5476336079        5.6137280621
 C        -9.2059497959        5.0531665285        6.1012631511
 C       -13.2105300660        7.7861304050        0.9348994134
 C       -12.5972931207        6.0932590019       -0.7353074291
 C        -6.8725148942        9.2638907841        0.1574900337
 C        -6.7888804070       10.1366516844       -2.3467594423
 C        -5.1025165530        1.7428892732       -0.8371459433
 C        -5.7831217810        2.6964727197       -3.0481254667
 C        -9.9268426699       -0.4074667902        1.2352706330
 C        -9.0804552904       -1.1081489433       -0.9270047919
 C       -13.6813321802       -5.7437652537       -1.4994089688
 C       -14.3696629302       -3.8404656000       -3.0672769360
 H       -15.5544536530       -4.5256573339        1.2852724056
 H       -15.7436856793       -5.8792114820        0.6106168786
 H       -17.1635608227       -4.8511917819        0.4836646173
 H       -14.6317998383       -1.6366605980       -0.4641831018
 H       -13.5903754639       -1.5169496500       -1.8890982290
 H       -11.9113536749       -2.0504959005        0.3201180965
 H       -12.6485566005       -0.4972329165        0.8103014457
 H        -8.9845678947        1.3347442616       -2.3448153007
 H        -7.7300811041        0.9971143414       -1.2592286574
 H        -9.1317658564        3.7133074272       -1.0960967196
 H        -8.0095629560        3.4829486362       -2.4952699298
 H        -6.7324863617        5.3467899389       -2.0702154967
 H        -5.1524637566        5.6380426715       -2.7658292164
 H        -4.6559692669        7.2340697894       -0.9289113233
 H        -6.0510477845        6.9298160894       -0.1081488996
 H        -9.3704642999        8.5890092344       -3.5322129048
 H        -9.7556523747       10.0141885066       -2.4132188994
 H       -11.0962561578        7.1912229344       -2.3627720500
 H       -11.7998390751        8.8399000399       -2.7453417966
 H       -11.1055197964        8.3521771270        2.6079714051
 H        -9.5540323234        8.0237875240        1.8992648480
 H       -10.7712943198        5.7905399995        3.7698476796
 H       -10.2907431316        7.4179290964        4.6038227192
 H        -6.2992089317        2.5457066547        5.8264036067
 H        -7.1906538235        3.6700564897        6.9694392372
 H        -5.6447432782        4.1656511804        6.0729526507
 H        -6.3764323453        6.6947526696        4.8728600706
 H        -6.5970499963        6.1564425682        6.4566543174
 H        -7.7814127248        7.3855573524        5.9710156614
 H        -9.8111800077        5.9706245555        6.1682490813
 H        -8.9356133507        4.9814548037        7.1486740954
 H        -9.9392967448        4.1792924934        5.9387468404
 H       -13.8677764630        8.0988395545        0.1120997393
 H       -12.9476284540        8.7604786011        1.5145992627
 H       -13.6888828190        7.0707210228        1.5652436211
 H       -11.8807563226        5.4993715657       -1.3423835940
 H       -13.4187295193        6.4619706028       -1.3425701851
 H       -13.1315025399        5.2910992287       -0.1971759236
 H        -5.7491158525        9.4893016396        0.3271460876
 H        -7.1540060222        8.3321523105        0.6558463648
 H        -7.4516766047       10.0505588795        0.6211340589
 H        -7.6557002797       10.7074132630       -2.7632274633
 H        -6.1734911099        9.6654765951       -3.1569578905
 H        -6.0841453135       10.7529860660       -1.8356972313
 H        -4.0771635990        2.1051602267       -0.6552430322
 H        -5.0830629246        0.8461254923       -1.4863898926
 H        -5.6156667458        1.4037960430        0.0870649217
 H        -6.3781787761        1.9566660472       -3.4692629560
 H        -4.8081189402        2.5781558736       -3.4089631758
 H        -6.1097751501        3.6361894289       -3.4576696826
 H       -10.6188087697        0.1717459270        1.8129202779
 H        -8.8961443755       -0.0444366477        1.5336800858
 H       -10.2182559449       -1.4473587325        1.4138943136
 H        -8.9334295280       -0.8764493971       -2.0454856641
 H        -9.4560597010       -2.1322011431       -0.9795773704
 H        -8.0837442764       -1.1615848813       -0.3746166244
 H       -14.4906196660       -6.5225430160       -1.6194660960
 H       -13.3707838875       -5.9716639626       -0.4608565074
 H       -12.9433525799       -5.9721842111       -2.3070311865
 H       -14.9530935357       -2.9222609431       -3.2984109127
 H       -14.8235580864       -4.5897027269       -3.7346864248
 H       -13.3891822443       -3.7580977241       -3.4098658835
 Na       -9.0134026382        4.0366430379        1.6088056317
