117

 C       -15.8866783494       -4.9230867254        0.5504177061
 C       -15.8060171747       -4.1076271755       -0.7673636692
 O       -16.4686883199       -3.1318157639       -1.0685722345
 C       -14.3987949151       -4.3330706021       -1.4803542653
 C       -13.4338040158       -3.4282102836       -0.7187478738
 O       -12.5977961758       -3.8650902101        0.1234313570
 C       -13.6150205328       -1.9101373061       -0.8838752625
 C       -12.5252001217       -1.1122508475       -0.1121894128
 C       -11.5048118122       -0.4285969664       -0.9667761427
 O       -11.7448185034        0.1562353950       -2.0127851484
 C       -10.0331320370       -0.1030743486       -0.1575798774
 C        -9.7437653133        1.3538977928       -0.3670156331
 O       -10.2269521053        2.1947806062        0.4659787816
 C        -8.9194868666        1.7820728840       -1.5500765271
 C        -8.2993992859        3.1453204509       -1.6706192091
 C        -6.9844617643        3.1852528660       -0.8861719353
 O        -6.9847938688        3.3170989798        0.3766386512
 C        -5.6166782345        2.9619291761       -1.5776733762
 C        -4.8449338454        4.3103469492       -1.3343638012
 O        -3.9431128569        4.3184441159       -0.5533830107
 C        -5.5768072685        5.5724401767       -1.9393329503
 C        -5.5817947885        6.8980577682       -1.2030355377
 C        -6.4377137834        7.8025151011       -2.0169083566
 O        -6.7058674203        7.6049904796       -3.2221554200
 C        -7.0915332095        9.0910714672       -1.3585962128
 C        -8.6222384052        8.5324325879       -1.3534174747
 O        -8.8772339405        7.6595126268       -0.5280430832
 C        -9.6518101126        8.8753671367       -2.4413645241
 C       -10.9051386962        8.0212415104       -2.0961667042
 C       -11.4211921828        8.3713367982       -0.6516233983
 O       -11.3125444831        9.4709313589       -0.1714404024
 C       -12.2027456187        7.2354798921        0.1603662384
 C       -11.0783931014        6.5969064994        1.0567525673
 O       -10.6676153691        5.4609437628        0.7596122666
 C       -10.4273951684        7.4365133187        2.2153859292
 C       -10.1575727937        6.6392352865        3.5641228215
 C        -8.6741725304        6.1166257981        3.7008948454
 O        -7.8606509761        6.2778820441        2.7806881697
 C        -8.2440141893        5.5724685297        5.1315808949
 C        -7.4993017173        4.0473211950        4.9112062975
 O        -7.6529043915        3.3994216113        3.9067175958
 C        -6.8123687645        3.4570722992        6.1332911374
 C        -7.1524340638        6.5364364362        5.5635588507
 C        -9.4126708997        5.1397338804        5.9917891025
 C       -13.3077259332        7.9054831013        1.0155937800
 C       -12.6330749051        6.0867019337       -0.7613535343
 C        -6.7558725115        9.2373523196        0.1859969271
 C        -6.7012280147       10.3946120344       -2.1618495615
 C        -4.8568317924        1.5940093258       -0.7652450762
 C        -5.7909556898        2.5993103370       -3.0100803281
 C        -9.9614897882       -0.4376716837        1.3779988016
 C        -8.8168020838       -0.8770190504       -0.7856702997
 C       -13.9140678696       -5.8010623084       -1.5072667242
 C       -14.4233885315       -3.7454572980       -2.8604312708
 H       -15.0702075131       -4.7638426229        1.1887542738
 H       -15.6347871676       -6.0462186291        0.4894386384
 H       -16.8277616051       -4.9388804424        1.0708661791
 H       -14.6424620556       -1.6970202838       -0.3890326650
 H       -13.6142210565       -1.4665571016       -1.8878665968
 H       -12.1203366258       -1.8268505076        0.6276743595
 H       -12.9518985071       -0.2101870321        0.4581131820
 H        -9.3226588856        1.5718128608       -2.5450521369
 H        -8.1568237839        1.0816900836       -1.5485017253
 H        -8.9593771532        3.8452111061       -1.2602432417
 H        -8.1059696616        3.3656636560       -2.7061792373
 H        -6.6092830232        5.2237519636       -2.0663096829
 H        -5.2253414335        5.5872452064       -2.9870892238
 H        -4.6024009217        7.4128933542       -1.0452974887
 H        -6.0363958793        6.8496188361       -0.1883423019
 H        -9.0818243096        8.5279331678       -3.4069181899
 H        -9.7654711226       10.0091859285       -2.5947012203
 H       -10.6457946909        6.9501347572       -2.0283030961
 H       -11.8307646848        8.1511911296       -2.7286623073
 H       -11.0509901464        8.3003912363        2.3383861898
 H        -9.5200573534        7.8829139829        1.8457167059
 H       -10.9295135647        5.8336922907        3.8085980692
 H       -10.1263166450        7.3990601658        4.3100222464
 H        -6.2129815385        2.6172838218        5.9012003814
 H        -7.4779226161        3.3825886908        7.0302027291
 H        -6.1070075265        4.2289575194        6.3224861496
 H        -6.2676688717        6.4557930677        4.8629063232
 H        -6.6847110958        6.1674115253        6.4400011471
 H        -7.5954666727        7.4740961845        5.7362130617
 H        -9.8498621610        5.9577827870        6.6846369429
 H        -9.1057603651        4.4219169509        6.7950810392
 H       -10.2309867770        4.6824988485        5.5325924095
 H       -14.0690461374        8.0844549685        0.2641932424
 H       -13.0738243902        8.7634513049        1.4748580138
 H       -13.7645916864        7.1994401328        1.6799037157
 H       -11.9239045889        5.3899418484       -1.2182605121
 H       -13.2878813224        6.5301842135       -1.5417444457
 H       -13.3792899845        5.4059994194       -0.3025413335
 H        -5.7139721728        8.9103815542        0.3657173628
 H        -7.4494778667        8.6294094693        0.8100516646
 H        -6.7744697985       10.2470303005        0.5274594428
 H        -7.6629995764       10.8932965845       -2.5380059013
 H        -5.9823010563       10.1893266869       -3.0296149215
 H        -6.1445995463       11.0356426183       -1.4815101825
 H        -3.8223357853        1.9610674589       -0.4702551684
 H        -4.8771316660        0.7092927115       -1.3148188052
 H        -5.4190459870        1.3653183297        0.1209011977
 H        -6.6225568685        1.9017487915       -3.1228981763
 H        -4.9421930529        2.2515225716       -3.5644021137
 H        -6.1450301039        3.5250315591       -3.5615234515
 H       -10.9121623524       -0.3433978648        1.8874338671
 H        -9.2210392576        0.3091409677        1.8657301010
 H        -9.7325176608       -1.4394498534        1.4866386366
 H        -8.7076564123       -0.8071559171       -1.9105846138
 H        -8.8623295835       -1.9858558651       -0.5734123847
 H        -7.9105065066       -0.5976768788       -0.2719140343
 H       -14.6661532904       -6.6393458511       -1.4396467577
 H       -13.2626933387       -6.0107397833       -0.6232741632
 H       -13.4082691664       -5.9879854618       -2.4837762730
 H       -14.9563841609       -2.8037907768       -2.7785187588
 H       -14.9814166460       -4.2455429065       -3.7230147510
 H       -13.3655240693       -3.5627694680       -3.2602955128
 Na       -8.8585120134        3.8856471156        1.7661050818
