117

 C       -15.8460836311       -4.8741776416        0.6468521151
 C       -15.7228919750       -4.0470309643       -0.5545472227
 O       -16.5215503401       -3.2684017788       -0.8191028364
 C       -14.3715567984       -4.2651817606       -1.4526681688
 C       -13.4368896236       -3.4391371091       -0.5467707182
 O       -12.8875220384       -3.9903057959        0.4629944625
 C       -13.4695081962       -1.9212298289       -0.8596016740
 C       -12.6066689675       -1.0061831983       -0.0105224085
 C       -11.4187528517       -0.3187380675       -0.7262341123
 O       -11.4855948198        0.2155133805       -1.8648649554
 C        -9.9964584446       -0.1705369379       -0.1036984477
 C        -9.7587251371        1.3910799209       -0.4427851138
 O       -10.2290236255        2.2104743062        0.4200403530
 C        -9.1794736569        1.9129470829       -1.8443164141
 C        -8.3785807537        3.2784924393       -1.6641664616
 C        -7.0145010297        3.1567019944       -0.9068341312
 O        -7.0007715403        3.6063567476        0.2465573835
 C        -5.6769619054        2.8231339695       -1.5740664327
 C        -4.7505005114        4.1955837205       -1.1505229574
 O        -3.9052527272        4.3963931769       -0.3015643532
 C        -5.3385939552        5.3011841312       -2.1796093596
 C        -5.4795174095        6.6726995922       -1.3870527133
 C        -6.3185918304        7.8346114149       -2.1343142375
 O        -6.6411417583        7.7337571745       -3.2997607271
 C        -7.0120279001        9.1369006517       -1.3104977073
 C        -8.4661485328        8.5672851165       -1.3892982443
 O        -8.7236730850        7.6860773955       -0.5939432835
 C        -9.5729525896        8.8190510529       -2.4250442448
 C       -10.7738331929        7.8445246015       -2.0737297070
 C       -11.4585498090        8.2899131557       -0.7634284046
 O       -11.3448537628        9.4445872316       -0.3307746477
 C       -12.2694061329        7.1995615365        0.1339999798
 C       -11.0684160235        6.4261264179        1.0082443826
 O       -10.6445012961        5.3591457143        0.6803376950
 C       -10.3562131861        7.3550910922        2.0376166405
 C       -10.1781645683        6.6036509356        3.3505664965
 C        -8.6853275529        6.1496708679        3.6149135087
 O        -7.8183029788        6.3452749038        2.7765734692
 C        -8.2935102407        5.4720430461        4.9972469181
 C        -7.6675383871        4.1222867507        4.8695058491
 O        -7.6364069764        3.4577993798        3.8561112003
 C        -6.9518399957        3.4461163070        6.1460195702
 C        -7.2296779454        6.4506462794        5.6145484029
 C        -9.5907495219        5.4457831715        5.9531839673
 C       -13.3237509119        7.9120700434        1.0005754193
 C       -12.8362104664        6.1627941257       -0.7820669829
 C        -6.5277635267        9.2527053425        0.1459845145
 C        -6.8716605654       10.5344842170       -1.9250022425
 C        -4.6771467404        1.7834069016       -0.8466838210
 C        -5.7086926543        2.4253292144       -3.0677710376
 C       -10.1540531731       -0.4595286836        1.4166717129
 C        -8.7582225909       -0.9162429966       -0.7267911808
 C       -14.1318827450       -5.8146478966       -1.4984322921
 C       -14.6311750506       -3.7324363972       -2.9271565047
 H       -14.9994231896       -5.2232737682        1.2317888616
 H       -16.1038749674       -5.9179483727        0.3806327263
 H       -16.6855697914       -4.6257711686        1.2627520213
 H       -14.5403462861       -1.5172983486       -0.6933382891
 H       -13.1869839697       -1.7078588099       -1.8731302044
 H       -12.2647819056       -1.6635822762        0.8541053418
 H       -13.2587872302       -0.2593489195        0.4292078622
 H        -9.9315670926        2.1481840318       -2.6226916288
 H        -8.6913104187        1.1242576472       -2.3457343782
 H        -8.9243095776        3.8843881079       -1.0044672008
 H        -8.3536661325        3.7612544734       -2.6967705619
 H        -6.2948756304        4.8870317507       -2.5579315360
 H        -4.7420853099        5.2886213367       -3.0202407960
 H        -4.4322021540        7.1591967552       -1.2968704122
 H        -5.8016085019        6.5335529799       -0.2781385852
 H        -9.2066648853        8.7434430400       -3.3192636327
 H        -9.8888009491        9.8442997717       -2.3123917700
 H       -10.5525505813        6.7996537265       -1.9532912925
 H       -11.5939975469        8.0055307259       -2.7767396551
 H       -10.9621539262        8.2243827056        2.0483651061
 H        -9.4621619537        7.6934980902        1.6389450573
 H       -10.7218200586        5.6870549709        3.3533732658
 H       -10.4581805009        7.2372016581        4.1380121548
 H        -6.3082388586        2.6235561313        5.7396033423
 H        -7.7776086743        3.1236758058        6.6949234467
 H        -6.3210313736        4.0046349479        6.7568052133
 H        -6.2371842056        6.4740029542        5.2881976909
 H        -7.0953357583        6.1642166488        6.6564379316
 H        -7.8771018462        7.3080903665        5.5861842350
 H        -9.6949474172        6.3173848460        6.6087748151
 H        -9.5669393448        4.6244271547        6.7024669934
 H       -10.5465772106        5.3400212564        5.4536628088
 H       -14.2252584076        8.0408146171        0.4652491746
 H       -13.0195948400        8.8336065342        1.4475115549
 H       -13.6355554901        7.1901179535        1.7649722985
 H       -12.2317105014        5.3718244339       -1.2155203612
 H       -13.3974824762        6.6679779557       -1.6141415941
 H       -13.6607468231        5.6385154991       -0.3134809117
 H        -5.6009284648        8.8144475872        0.2228471989
 H        -7.1957307413        8.8787284311        0.9273669431
 H        -6.2748284212       10.3041952996        0.4506713721
 H        -7.8703236318       10.9101989793       -2.1937931375
 H        -6.2763438379       10.4666770942       -2.8461826543
 H        -6.2749340073       11.2433631723       -1.2368360068
 H        -3.7197631598        2.2313834187       -0.6834706786
 H        -4.7290836830        0.8182168860       -1.3239541112
 H        -5.1116964487        1.5783072705        0.1053898597
 H        -6.4564274701        1.5569591638       -3.1792127554
 H        -4.7205982807        2.1644416749       -3.5973131412
 H        -6.1437460706        3.2174341240       -3.7218497481
 H       -11.2192531600       -0.4290448669        1.7124724378
 H        -9.6738887757        0.3038447382        1.9234647272
 H        -9.8134729659       -1.4763178654        1.7423936991
 H        -8.8156208904       -1.1227955521       -1.7505401161
 H        -8.5925778140       -1.8577103515       -0.1431350933
 H        -7.8546833076       -0.3977839040       -0.5193969903
 H       -14.9368217755       -6.5195185941       -1.4891368080
 H       -13.4784439253       -6.1106608453       -0.6694262514
 H       -13.6406115359       -6.0013346329       -2.4613711148
 H       -15.3034347547       -2.8467498164       -2.8637967717
 H       -15.1897594373       -4.3904807800       -3.6020292519
 H       -13.6843135515       -3.4462287551       -3.5400059512
 Na       -8.7096730545        3.7872933938        1.8356379420
