117

 C       -15.9325009837       -4.9848607602        0.9717097518
 C       -15.9106097888       -4.1413755423       -0.2497297449
 O       -16.7773316355       -3.2181208809       -0.4649276570
 C       -14.7088588972       -4.3435435988       -1.2255431989
 C       -13.6720727508       -3.4063082442       -0.4275239867
 O       -13.3203910035       -3.6806477432        0.6681063176
 C       -13.0618309144       -2.0979842605       -1.1218043260
 C       -12.4131748932       -1.1910809450        0.0335099680
 C       -11.4038435062       -0.2696626246       -0.6736154959
 O       -11.4614757398       -0.0843263436       -1.8570907436
 C       -10.0078848804        0.0850329342        0.0775535133
 C        -9.6721775529        1.6747876503       -0.2198149545
 O        -9.7627740835        2.3584385432        0.7579206999
 C        -9.3791637035        2.0374785531       -1.6603881614
 C        -8.3272176384        3.1333822866       -1.7311540577
 C        -7.0643961319        3.1908132379       -0.9564257292
 O        -6.9417877519        3.6557839984        0.2006123944
 C        -5.7016195797        2.8046757605       -1.5434651540
 C        -4.8880925745        4.3539510656       -1.4394747833
 O        -4.3713932680        4.5158474746       -0.3737385580
 C        -4.9361585710        5.6968783440       -2.3996232256
 C        -5.3300887773        6.8457449842       -1.6215277261
 C        -6.1359462425        7.9135491949       -2.3080669173
 O        -6.2431904842        8.0307618381       -3.5304426673
 C        -6.8638402102        8.9184351654       -1.3572113698
 C        -8.1784344679        8.2952346231       -1.1256972097
 O        -8.4052504271        7.4191821946       -0.2958559686
 C        -9.2246249133        8.6424103716       -2.1106489127
 C       -10.4917759930        7.7891284164       -2.2193552901
 C       -11.4529653350        8.1504887739       -0.9734376830
 O       -11.5319799870        9.2724488276       -0.5784590020
 C       -12.0996301392        7.0193294215       -0.0888951713
 C       -10.9834563457        6.3020729497        0.6940839789
 O       -10.7373789232        5.0657878709        0.6108549371
 C       -10.2405828291        7.2200899459        1.7554446319
 C       -10.2023078538        6.4983734453        3.0703388237
 C        -8.7134008722        6.1587059624        3.5479943676
 O        -7.8150449859        6.1943084483        2.7527871281
 C        -8.4595849171        5.6298502307        5.0150119318
 C        -7.9409680680        4.1766454185        4.8506802799
 O        -7.8946529189        3.6489808383        3.7331212469
 C        -7.5167709470        3.4085882930        6.0180477930
 C        -7.4166634322        6.5213220486        5.7027492687
 C        -9.7502611261        5.6695872682        5.8512680441
 C       -12.9402690658        7.7670748742        1.0157058929
 C       -13.1224083267        6.1982978708       -0.9267193630
 C        -6.1191176777        9.0197523356       -0.0440513497
 C        -6.9597150015       10.2704796970       -2.0111145627
 C        -4.9326684321        1.8207706031       -0.5859125341
 C        -5.6015622403        2.3329950605       -3.0509979112
 C        -9.8059808907        0.0699619673        1.6623739758
 C        -9.0115358779       -1.0668345551       -0.5173403634
 C       -14.0835081285       -5.7498644479       -1.4272432185
 C       -15.0495099314       -3.6749831398       -2.5374966489
 H       -15.2476262971       -5.7924158619        1.0408414706
 H       -16.8512272126       -5.4518677345        1.4026896571
 H       -15.7322095988       -4.3617087937        1.8435262114
 H       -13.6823471853       -1.4251981068       -1.6067337276
 H       -12.2354754990       -2.3459297804       -1.7983628515
 H       -11.9313141781       -1.8447523382        0.6885787176
 H       -13.2282228342       -0.7697983671        0.6377483430
 H       -10.2934559995        2.3807063985       -2.1929650489
 H        -9.1124032006        1.2083751614       -2.3780527535
 H        -8.7681775091        4.1753498311       -1.4019149066
 H        -8.1156202641        3.1593898765       -2.7894062527
 H        -5.5117727628        5.3639404559       -3.2498299500
 H        -3.8526094646        5.8289635242       -2.7912980782
 H        -4.5044761385        7.2662419601       -1.1492637667
 H        -5.9396812966        6.5166371257       -0.8417001091
 H        -8.6985777085        8.6925665973       -3.1987435403
 H        -9.3961240423        9.7580999122       -1.8556202501
 H       -10.2310208781        6.7373273946       -2.1256483528
 H       -10.9024896122        8.0637735191       -3.1906254300
 H       -10.6533928199        8.2754742880        1.7069114244
 H        -9.1144153977        7.3978984111        1.4558876137
 H       -10.6594735003        5.4689346222        2.9373505518
 H       -10.7598072041        7.0348722551        3.8729413741
 H        -6.5557823023        3.0377496951        5.8277420707
 H        -8.3679859519        2.7132310481        6.3820745430
 H        -7.3274123423        4.1691256677        6.8214391872
 H        -6.5260278062        5.9765480699        5.1756809388
 H        -7.1744004682        6.2406089215        6.7029602435
 H        -7.4842023756        7.5741172354        5.4772109540
 H       -10.3499913895        6.6403295935        5.6896714605
 H        -9.5741049807        5.5685566936        6.9541960192
 H       -10.4518769213        4.9037553538        5.5519800867
 H       -14.0353599692        8.0338236195        0.6925308771
 H       -12.3885316746        8.6234193871        1.3828806899
 H       -13.2119233273        7.0300821991        1.8495586701
 H       -12.5225260941        5.5414566239       -1.5744615685
 H       -13.8493569615        6.5670834365       -1.5700519451
 H       -13.5732096568        5.5030603688       -0.2160469875
 H        -4.9987658889        9.2284699426       -0.0902354911
 H        -6.3247276502        8.1369942537        0.5875362119
 H        -6.5046820607        9.7861252800        0.5596769536
 H        -7.6594317071       10.9484185283       -1.4764348908
 H        -7.3370302847       10.2379531342       -3.0470291247
 H        -6.0191679753       10.6840892312       -1.9838317010
 H        -3.9289742723        1.6336198060       -1.0761545529
 H        -5.5557647225        0.9919562390       -0.3307013335
 H        -4.6073395282        2.2648884353        0.3719594430
 H        -5.7603447964        1.2993905003       -3.1405721881
 H        -4.6158108426        2.4890336030       -3.3833184650
 H        -6.1405502121        2.8051825463       -3.8800663913
 H       -10.0662455871        0.9866598316        2.1723611073
 H        -8.7022752724       -0.3281668525        1.8218434239
 H       -10.4259082669       -0.6751218050        2.0536390580
 H        -9.3544074321       -1.3230946745       -1.5460418179
 H        -8.8500399643       -1.8355488206        0.2184304836
 H        -8.0241119348       -0.6250553350       -0.6696028892
 H       -14.7452259488       -6.3766371257       -2.0232763425
 H       -13.9004191587       -6.2678314812       -0.4865876728
 H       -13.1305267918       -5.8311297671       -1.9333011489
 H       -15.5144263764       -2.7379285248       -2.4334590514
 H       -15.7234849830       -4.2556219799       -3.1517311017
 H       -14.1432775577       -3.5102641479       -3.0475620114
 Na       -8.7381678115        3.9860251046        1.5212086977
