117

 C       -16.2601981977       -5.2411716143        1.4173610270
 C       -16.3536755428       -4.2359929887        0.2837091242
 O       -17.3271170074       -3.5750612063        0.0436883058
 C       -15.0957724840       -4.0331510357       -0.7062923951
 C       -13.8921298196       -3.3350414294        0.0092106356
 O       -13.6972614573       -3.2085091430        1.2128062558
 C       -12.9787747568       -2.3776050686       -0.9509418187
 C       -11.8177697892       -1.6471260386       -0.2159736926
 C       -11.0792182384       -0.4589709844       -0.6976226867
 O       -11.5798011760        0.4440445124       -1.3700768627
 C        -9.6386464977       -0.0869451259        0.2983077590
 C        -9.4042643838        1.3072333661       -0.1406311100
 O        -9.5856688896        2.2385160511        0.6684471034
 C        -8.9597883876        1.6165436358       -1.5324612073
 C        -8.3417636406        3.1269672631       -1.5704183572
 C        -6.9968134330        3.3805688873       -0.8845246938
 O        -6.8187337743        3.8958532313        0.2509116396
 C        -5.7419475903        3.0744625338       -1.6347607289
 C        -4.8514248323        4.2959662319       -1.5128968540
 O        -4.0759399961        4.3792027946       -0.5821959579
 C        -5.1652712587        5.5216089952       -2.5701484031
 C        -4.6692478756        6.8100749646       -1.9356504156
 C        -5.4360796314        8.0066027119       -2.6076632256
 O        -5.3521952993        8.2474418114       -3.7894929530
 C        -6.4054334754        8.8818073208       -1.7197144110
 C        -7.6439727513        8.0132266464       -1.5730555306
 O        -7.5682728590        6.9283930743       -1.0072760607
 C        -9.0171461687        8.3133405523       -2.1828308898
 C       -10.0842877366        7.3610346461       -1.8162825422
 C       -11.3572046837        7.9513789120       -1.1312395612
 O       -11.6789794129        9.1279942755       -1.0871522158
 C       -12.3124937452        6.9201691586       -0.3034006032
 C       -11.1663545350        6.4040146195        0.5781410313
 O       -10.6044091022        5.2742671374        0.3566629714
 C       -10.5148460824        7.2586591374        1.6596727911
 C       -10.3556359733        6.4819405560        2.9611626876
 C        -8.9204860580        6.3149726486        3.5773160212
 O        -7.9416861645        6.3858050175        2.8511784755
 C        -8.8200998780        5.7200726742        5.0594406641
 C        -8.6013221761        4.0866698094        4.9144072074
 O        -8.6444425580        3.6149135533        3.8104888964
 C        -8.2121429082        3.2001156567        6.0482893681
 C        -7.4068876726        6.1832401130        5.6947341130
 C       -10.0225174745        6.0047840156        6.0226575187
 C       -13.3830528064        7.5729261252        0.4810565631
 C       -13.0838769859        5.8980136364       -1.2819561416
 C        -5.8938557369        9.0788161041       -0.2132286444
 C        -6.6690393910       10.2653376272       -2.2444999785
 C        -5.0746736628        1.9505573786       -0.7949810928
 C        -5.8753354913        2.5758591592       -3.0301371933
 C        -9.9502470190        0.0066580638        1.7966753150
 C        -8.4899540020       -1.1186603013        0.1315012609
 C       -14.6484730386       -5.4465792693       -0.9135438314
 C       -15.5678671092       -3.4158214753       -2.0460245437
 H       -16.9404526025       -6.0520770154        1.4730900175
 H       -16.3874972225       -4.6719433942        2.3946245280
 H       -15.3447084872       -5.7577752647        1.6043773661
 H       -13.6291543896       -1.5972250669       -1.3180808256
 H       -12.5555263352       -2.9136067906       -1.7716624767
 H       -11.1516055478       -2.3779114981        0.0937351865
 H       -12.1972943671       -1.3214716548        0.7917642256
 H        -9.8269927001        1.5233313135       -2.2277921146
 H        -8.1908606712        0.8794639181       -1.9102932692
 H        -9.2513226032        3.6269387972       -1.0789205921
 H        -8.2803185646        3.5470641911       -2.6053031436
 H        -6.2037497160        5.6672289911       -2.8332023683
 H        -4.6736830915        5.3618457297       -3.5854535941
 H        -3.6052707139        7.0087390483       -1.9391338974
 H        -5.0684674305        6.7572940409       -0.9369584742
 H        -8.7268527427        8.3635041780       -3.2540733160
 H        -9.3290110769        9.4478070699       -1.7938408327
 H        -9.6696699138        6.6671915588       -1.1427948338
 H       -10.4069604675        6.7903303949       -2.6648714896
 H       -11.1533074556        8.1485183272        1.8465167476
 H        -9.5377619060        7.6078999804        1.2405610576
 H       -10.7835357438        5.4846077230        2.8775306257
 H       -10.9410535776        6.9584876151        3.6938111561
 H        -7.1620764617        3.3375242602        5.9374495723
 H        -8.5643691914        2.1492393032        5.7947870507
 H        -8.4696583495        3.5221620366        7.0240910721
 H        -6.6239223295        6.4082845668        4.9177109227
 H        -7.1397868948        5.5126578237        6.4912532501
 H        -7.5805770413        7.1644104905        6.1638021810
 H       -10.0420435985        7.1417676093        6.0819717416
 H        -9.8782468811        5.5155720244        7.0088610385
 H       -11.0053158385        5.8265768948        5.6748727361
 H       -14.0449027473        8.2135170614       -0.2256846889
 H       -12.9803762228        8.3598610030        1.0939688775
 H       -14.1166032338        6.9340071823        1.1725520804
 H       -12.5120368379        5.3589357107       -2.0362868968
 H       -13.7773238347        6.3462983543       -1.9382435306
 H       -13.5615235192        5.1407449822       -0.6669302212
 H        -4.9227298087        9.5265289213       -0.0137516834
 H        -5.8050758322        8.1421481095        0.3646776335
 H        -6.6116135778        9.6442679898        0.2892980830
 H        -6.8766074038       10.9154005115       -1.4003287601
 H        -7.4804350852       10.4913769099       -2.9126945738
 H        -5.7984122700       10.7237331961       -2.6485867103
 H        -3.9972214996        1.8608787934       -1.2007854182
 H        -5.5457108832        1.0560652122       -1.1107743585
 H        -4.9984176767        1.9731527002        0.2862747333
 H        -6.7082964819        1.8099467572       -3.0166428386
 H        -4.9779370479        2.1093512633       -3.5120712825
 H        -6.2048447976        3.3763699461       -3.7938717806
 H       -10.6875364790        0.7880543404        2.0070341740
 H        -8.9599714925        0.3714332032        2.2225451223
 H       -10.0651836606       -0.9704965085        2.2226311971
 H        -8.0485491638       -1.0563316458       -0.8392373743
 H        -8.8401224027       -2.0857136708        0.4445237410
 H        -7.7042554915       -0.7892940477        0.7281756929
 H       -15.4847359599       -6.0895060912       -0.9389906800
 H       -13.9151059493       -5.7976618664       -0.2558734039
 H       -14.1485936008       -5.6106476878       -1.8040414576
 H       -15.9443456058       -2.4863179782       -1.8497362263
 H       -16.3238753115       -4.0443207002       -2.5311183390
 H       -14.7142536900       -3.2229472262       -2.7139146725
 Na       -8.5426027447        5.0895190550        1.0365191447
