117

 C       -16.3611817106       -5.1707006827        1.6022775299
 C       -16.3816764663       -4.1153212547        0.4446425710
 O       -17.4198920849       -3.6730162422        0.1810307932
 C       -15.1010005687       -4.0280274144       -0.5303337245
 C       -14.0031877920       -3.1057662111       -0.0100393383
 O       -13.8030241632       -3.1176349312        1.2310125189
 C       -13.0688159628       -2.2851285729       -0.9622810515
 C       -11.7710205802       -1.9215137745       -0.1382578322
 C       -11.1253423472       -0.5695888278       -0.3718509474
 O       -11.5165198888        0.2923967940       -1.1919344321
 C        -9.7482038705       -0.1195293158        0.3836123431
 C        -9.3242131897        1.2929628759       -0.1585369122
 O        -9.4886418563        2.2847571182        0.5458842524
 C        -8.7774211835        1.6420685282       -1.5759897473
 C        -8.3143193744        3.1910395744       -1.5052772032
 C        -6.8415837662        3.4032610735       -0.8844388825
 O        -6.7377839122        4.0270103260        0.1579196758
 C        -5.6670507529        2.9360257288       -1.7533201549
 C        -4.6416932993        4.2759868458       -1.5868695326
 O        -3.8569784565        4.4158135043       -0.7253479480
 C        -5.1167295509        5.4711756638       -2.3618937691
 C        -4.3838372979        6.8062450250       -2.0976773652
 C        -5.2582696238        8.1274879874       -2.6340483582
 O        -5.1108227613        8.3053559257       -3.7984431635
 C        -6.4123318594        8.9261100851       -1.7213082873
 C        -7.6615842444        7.9005204205       -1.6138354258
 O        -7.5110476461        6.8313759691       -1.0953797472
 C        -9.1174787200        8.3840859511       -2.1125465750
 C       -10.1568801031        7.3157589815       -1.8877210392
 C       -11.4018414962        7.8931033921       -1.2864541125
 O       -11.5208960078        9.0780535336       -1.3100957232
 C       -12.3542748429        6.9448595685       -0.3474223397
 C       -11.2696922876        6.3100170248        0.6494125158
 O       -10.6891420212        5.2937370599        0.3531709237
 C       -10.7236481082        7.2680073488        1.8066285002
 C       -10.4837098863        6.4397701767        3.1623381943
 C        -9.0260780141        6.3067959332        3.6494840277
 O        -8.0828818903        6.5154917564        2.9003747613
 C        -8.7979338922        5.7221608786        5.0278436677
 C        -8.7270629735        4.1843974679        4.7835484932
 O        -8.8858439129        3.7531057906        3.6845504895
 C        -8.3649770206        3.2409221636        6.0520695417
 C        -7.4044350056        5.9497948128        5.7019184809
 C       -10.0791326731        6.1179819772        5.9207135682
 C       -13.5082723595        7.7158952992        0.2626130992
 C       -12.8236566177        5.8401705621       -1.2859875919
 C        -5.8579188203        9.1520775205       -0.2404982327
 C        -6.5987738776       10.2431427957       -2.4633173857
 C        -5.0199641333        1.7904874003       -0.8688334555
 C        -6.1164604115        2.5591747650       -3.1606105689
 C        -9.9485202055       -0.0729678455        2.0082716067
 C        -8.5836062534       -1.2009079071        0.2097308429
 C       -14.6473965733       -5.5311865555       -0.9510582770
 C       -15.6114167683       -3.2923323610       -1.8112348994
 H       -17.1992256950       -5.8831751675        1.5272831048
 H       -16.4402331273       -4.7642338239        2.6098335239
 H       -15.5971868418       -5.9550584820        1.6777765744
 H       -13.4553595994       -1.2784923231       -1.3580923510
 H       -12.8741856743       -2.9148870404       -1.7582483359
 H       -11.0019770101       -2.6985456608       -0.2890394875
 H       -11.9923057294       -2.1105148089        0.9235270504
 H        -9.7103616291        1.7243509791       -2.2502272988
 H        -8.0916151483        1.0067579265       -2.0804942408
 H        -9.1119240683        3.5463682325       -0.9328826578
 H        -8.4755580744        3.7148825916       -2.5382633548
 H        -6.2338660070        5.6640620743       -2.1074397675
 H        -5.2052352303        5.4134415808       -3.4569639091
 H        -3.5159864595        6.8577508409       -2.6549931258
 H        -4.1990603433        6.8785138309       -1.0914179498
 H        -8.9018082755        8.6905591452       -3.2144879436
 H        -9.3482242901        9.3478184640       -1.4991487889
 H        -9.7848888383        6.4455852930       -1.3572241775
 H       -10.4724388309        6.9487481203       -2.8831755585
 H       -11.2921923064        8.2491906053        2.0051437529
 H        -9.6849190870        7.5187181981        1.3688291773
 H       -10.8229818505        5.3234427515        3.0461072338
 H       -11.1278410115        6.8119307416        3.9715300220
 H        -7.2077586244        3.3414082264        6.1550627682
 H        -8.6959508016        2.2340506960        5.8149732968
 H        -8.7729458008        3.6273937883        6.9802255467
 H        -6.5321446011        5.7625099183        5.1545505639
 H        -7.6364313797        5.5539834552        6.7319368872
 H        -7.4425178912        7.0578477323        5.9528349286
 H       -10.1562888829        7.2220632766        6.0939519211
 H       -10.0112720673        5.5556287371        6.8983070020
 H       -11.0613300539        5.8844786308        5.4144224109
 H       -13.9654632575        8.3729896183       -0.4653358286
 H       -13.2215093993        8.4697985995        1.1132003779
 H       -14.2964452404        7.0698581593        0.6933087096
 H       -12.2131139291        5.0877890791       -1.7183626298
 H       -13.3074691713        6.2489791709       -2.1907872395
 H       -13.5531946612        5.2964622174       -0.7438784014
 H        -4.8292935285        9.2423949419       -0.1016480180
 H        -6.0505342400        8.3336511043        0.4769770497
 H        -6.3269652046       10.0795486148        0.1739370720
 H        -7.3162859975       10.9232652189       -2.1098863431
 H        -6.8148655572       10.1321733734       -3.4795343717
 H        -5.6600133296       10.8626038040       -2.4383907397
 H        -3.9178750267        1.7743527742       -0.7658378257
 H        -5.2939938280        0.7644166462       -1.2842521605
 H        -5.4029218470        1.8442358032        0.1751774434
 H        -6.7950448852        1.6970817363       -3.1192762640
 H        -5.3912947406        2.3523668809       -3.9735873955
 H        -6.7395586736        3.3581330992       -3.5016399876
 H       -11.0722510413       -0.1156413943        2.2054147789
 H        -9.6473618646        0.8312437380        2.4181931499
 H        -9.3351975093       -0.9501176077        2.4358514179
 H        -8.2727996042       -1.4302271575       -0.7650668184
 H        -8.7838843836       -2.0875885543        0.8480413063
 H        -7.7918399126       -0.5979844590        0.5869741084
 H       -15.5156033490       -6.1087667408       -0.9761940886
 H       -13.8947834521       -6.0845729442       -0.4683229980
 H       -14.3032776270       -5.5404084479       -1.9541997299
 H       -15.9065044335       -2.3056886581       -1.4316684435
 H       -16.3051585364       -3.7921637626       -2.3703709928
 H       -14.7389621773       -3.0917345232       -2.4059451088
 Na       -8.3808206778        5.0995984904        0.9975932587
