117

 C       -16.3270980398       -5.0708138879        1.7745169147
 C       -16.4445884491       -4.2977622398        0.4742562301
 O       -17.4732445420       -3.5766137942        0.2883000354
 C       -15.2278421634       -3.9717153711       -0.5176513250
 C       -13.9494607524       -3.0995536606        0.1311263215
 O       -13.8845997094       -2.9823661844        1.3118863189
 C       -13.0352040415       -2.2549177262       -0.7261191031
 C       -11.5994645615       -2.0919551664       -0.0387113331
 C       -11.0482562806       -0.6536557339       -0.1848560613
 O       -11.5497608175        0.0243137725       -1.0032909163
 C        -9.7538888798       -0.1646840299        0.5472147109
 C        -9.3386924594        1.3992667726       -0.0021133002
 O        -9.4527847065        2.2680670826        0.7877562343
 C        -8.6839219720        1.7372426333       -1.4513665865
 C        -8.2794554987        3.2051190360       -1.5579578182
 C        -6.8252216111        3.3910177575       -1.0060722174
 O        -6.6747814315        4.0444052935       -0.0072003218
 C        -5.6623217079        2.9155809557       -1.7720856962
 C        -4.6045424048        4.3518664516       -1.5798108303
 O        -3.5599118042        4.2387474354       -0.9344110900
 C        -5.1683266190        5.5455132271       -2.2738727446
 C        -4.2983801960        6.8341644912       -2.1853855773
 C        -5.1135321109        7.9602885470       -2.6562115976
 O        -4.9670367188        8.4993426632       -3.7256056416
 C        -6.2960504674        8.7418577464       -1.8138448521
 C        -7.5556109734        7.9001582315       -1.6548129749
 O        -7.5391332790        6.8062584534       -1.0999728266
 C        -8.9890187903        8.4114576468       -2.0992369964
 C       -10.0918967580        7.2707459496       -2.1252146466
 C       -11.2907002520        7.9424781840       -1.2951923911
 O       -11.6324679463        9.0800104558       -1.4279294867
 C       -12.2926126964        6.9771052328       -0.4028200097
 C       -11.3035189201        6.3758960443        0.6953268718
 O       -10.8069991649        5.3377582490        0.4614648616
 C       -10.8840739406        7.1846299268        1.8749412212
 C       -10.6273489433        6.3967269753        3.2225178860
 C        -9.1437819880        6.3515582862        3.6248120835
 O        -8.2239854398        6.6678433516        2.8774304425
 C        -8.8588287576        5.7187167528        5.1473127742
 C        -8.9378396499        4.1613115212        4.6641869743
 O        -9.1022591009        3.7331576288        3.5146371918
 C        -8.6207378058        3.2729964650        5.8579591320
 C        -7.5160079650        6.0655287520        5.7076078262
 C        -9.9708863321        6.0852542570        6.0642491438
 C       -13.4533211276        7.8330580552        0.0306678562
 C       -12.6372075223        5.7453178937       -1.3022968854
 C        -5.8363617869        9.1290924779       -0.4469818786
 C        -6.5822941436       10.0623315296       -2.6121057081
 C        -4.8849001733        1.6555056720       -1.0453375331
 C        -5.9682151980        2.5874987711       -3.2410880038
 C       -10.0834555495       -0.0814871806        2.0366182780
 C        -8.7135591123       -1.2410140646        0.1349094055
 C       -14.6522628490       -5.3355424298       -0.9562117886
 C       -15.8618723023       -3.2151295009       -1.7270335881
 H       -17.1104153850       -5.8348661278        2.0107201902
 H       -16.2789676230       -4.4404430516        2.6164269357
 H       -15.5235987133       -5.8540066710        1.7707780770
 H       -13.4341397418       -1.2242710683       -0.6732838442
 H       -13.0600132746       -2.5458429870       -1.8365530872
 H       -10.8440352752       -2.8355076039       -0.5125039555
 H       -11.6786475664       -2.5528707003        0.9287603026
 H        -9.1968445824        1.5580812759       -2.3806943927
 H        -7.7155720837        1.2417694449       -1.5175763052
 H        -9.0726403610        3.8187314816       -1.2111210376
 H        -8.2787725832        3.3163292861       -2.6236988393
 H        -6.2044661746        5.7600869550       -1.8841981582
 H        -5.3707155091        5.4983231759       -3.3235998369
 H        -3.4683359505        6.6959181925       -2.8716215001
 H        -3.9942636894        7.1261697269       -1.1856638636
 H        -8.8655273097        9.0320766679       -2.9856397414
 H        -9.2045146050        8.9826586714       -1.3276817927
 H        -9.7645252328        6.2410469330       -1.7425092664
 H       -10.4895096655        7.1198605300       -3.1637073155
 H       -11.6147254117        7.9883229764        2.1354382120
 H        -9.9139771145        7.6798024924        1.5675854700
 H       -11.0256459695        5.3424212532        3.3295485556
 H       -11.1973198989        6.9505664368        4.0795173107
 H        -7.5626118951        3.3409757332        6.1995128883
 H        -9.0105977089        2.2812080843        5.7337113132
 H        -9.2030785366        3.8458474142        6.6675602152
 H        -6.7583791228        5.4342474122        5.2070459214
 H        -7.5843096166        6.0929554446        6.8009330306
 H        -7.1995493536        7.0742387116        5.4063969425
 H       -10.2086049930        7.1418179505        6.0537462811
 H        -9.6347336815        5.7965004834        7.0686881654
 H       -11.0086644181        5.5672723648        5.8241176625
 H       -13.8464104739        8.4251151313       -0.7550058227
 H       -13.4067173779        8.5007459410        0.8847869868
 H       -14.1566511427        7.1506982873        0.3218296708
 H       -11.9603923812        4.9146102371       -1.4793042500
 H       -12.9065770220        6.0713152805       -2.3193269243
 H       -13.4945792709        5.2139580234       -0.9026199261
 H        -4.7402127697        9.1805705610       -0.3301036612
 H        -6.0176785938        8.4812593373        0.3764648711
 H        -6.2026307575       10.1664626657       -0.1905685738
 H        -7.6084828780       10.4061630590       -2.6824846626
 H        -6.3290570536        9.9315647676       -3.6870256346
 H        -6.1163214562       11.0004541770       -2.3457738036
 H        -3.8333475676        1.6478036065       -0.9236395493
 H        -5.1340741434        0.6927631507       -1.6270460505
 H        -5.3826254470        1.5371524452       -0.0558545471
 H        -6.3225031482        1.6139202466       -3.3807696297
 H        -5.0859529787        2.6256614807       -3.8298503206
 H        -6.7186136017        3.2061372435       -3.6451772281
 H       -10.8970849885       -0.7858409271        2.2309856428
 H       -10.6315448579        0.8604227425        2.2109957213
 H        -9.1697693982       -0.2287215611        2.6384951487
 H        -8.8338606675       -1.3596751240       -0.9677073153
 H        -8.8906327674       -2.1898994108        0.6337636151
 H        -7.6865221299       -0.7555927849        0.2263587569
 H       -15.3727154845       -6.1480651594       -1.1004944912
 H       -14.0105450501       -5.7435791849       -0.1513387430
 H       -13.9693862228       -5.3538200561       -1.8244970437
 H       -16.0749337964       -2.1488972953       -1.3675674073
 H       -16.7239466069       -3.7940020346       -2.1052940705
 H       -15.1363280663       -3.2060004568       -2.5210718064
 Na       -8.3255858453        5.1082299918        1.0338215951
