117

 C       -16.0607075717       -4.8664600809        2.0760534446
 C       -16.4411203440       -4.0594467112        0.7665375501
 O       -17.5716300780       -3.5690364073        0.7136575598
 C       -15.3334048278       -3.7171616913       -0.2253208571
 C       -14.1368257513       -2.8951333870        0.5309128355
 O       -13.9514835535       -2.8362254035        1.7637226212
 C       -13.1684789079       -2.2877581340       -0.3927189698
 C       -11.8036014618       -1.9076193601        0.2744487624
 C       -11.2182588792       -0.5318151915       -0.1131312024
 O       -11.6080711199        0.2293905171       -0.9484539625
 C        -9.8479557060       -0.2750818103        0.8360027024
 C        -9.4011056434        1.2862700070        0.3812907920
 O        -9.2939606389        2.1786720129        1.1428973640
 C        -8.6629935698        1.3067032320       -1.0826510749
 C        -8.1571549860        2.7261194940       -1.7247457163
 C        -6.7514359998        3.3385012592       -1.2748114976
 O        -6.5818425814        3.8702181111       -0.2109624532
 C        -5.3191338608        2.9401638261       -1.9346883301
 C        -4.3572762756        4.1980335070       -1.9545207248
 O        -3.1131935246        4.0325249291       -1.8512217029
 C        -5.0076976960        5.5070878049       -2.1900295436
 C        -4.0964929002        6.7024615716       -2.1411998393
 C        -4.8116266818        7.9341545110       -2.6670277747
 O        -4.4712546963        8.3931999717       -3.7366186282
 C        -6.0797165641        8.5961658082       -2.0051601335
 C        -7.3891574000        7.8038507520       -1.8274915220
 O        -7.4612073378        7.0199371712       -0.9405693482
 C        -8.8747193090        8.2611964517       -2.5703527771
 C        -9.9768415607        7.2765918138       -2.1676258716
 C       -11.2793912986        7.8710239519       -1.5263352416
 O       -11.4211301623        9.0302998947       -1.7053521737
 C       -12.1219669782        6.9582636397       -0.6159185095
 C       -11.3285685820        6.5413987710        0.7069595139
 O       -10.6741782990        5.5802961744        0.5160821249
 C       -11.4620845358        7.4557253477        1.9855190664
 C       -11.2691410078        6.6401796112        3.3171165293
 C        -9.6935996877        6.5365008896        3.6099406868
 O        -8.8890444092        7.0315059814        2.8266676048
 C        -9.1497238662        5.6876487699        4.8684005126
 C        -9.2833672228        4.2547392482        4.4456550750
 O        -9.2305432935        3.9640079557        3.2730757474
 C        -9.3984561067        3.1440235529        5.4421322454
 C        -7.6256301780        6.0404969011        5.0811373736
 C        -9.9503999261        6.0741091119        6.1622431454
 C       -13.5079376009        7.5574852919       -0.1664404126
 C       -12.2954397584        5.7183820933       -1.4561889104
 C        -5.5789236216        8.9841025056       -0.6613549207
 C        -6.3726629689        9.9226609947       -2.7958408838
 C        -4.7993467839        1.5975078534       -1.2411977043
 C        -5.5103189177        2.6718953246       -3.3826936713
 C       -10.1268082047       -0.4629600235        2.3295236930
 C        -8.6569866063       -1.1269571338        0.4819435125
 C       -14.6645332448       -5.0120915279       -0.7938405181
 C       -15.7708082772       -2.7292504395       -1.3808918583
 H       -16.8242948731       -5.5780765849        2.4413583581
 H       -16.0560882620       -4.1880311987        2.8560078987
 H       -15.2897252901       -5.6236172840        1.9958079180
 H       -13.6581960686       -1.3530470410       -0.7746077002
 H       -13.0964374143       -2.8465748179       -1.2700194055
 H       -11.1392985599       -2.7567846590        0.2062269017
 H       -12.0494890992       -1.9546487487        1.3211158348
 H        -9.2317978874        0.8241670049       -1.9455787782
 H        -7.7408024952        0.8209675175       -0.8854325987
 H        -8.9122745538        3.4571950369       -1.4494014911
 H        -8.1679388200        2.7157849108       -2.9150329659
 H        -6.0338812261        5.8021995404       -1.7296860483
 H        -5.2814020664        5.4313058971       -3.2458822030
 H        -3.1972713690        6.5219633662       -2.6550264132
 H        -3.9193071551        6.7333251753       -1.1070610674
 H        -8.7301380209        8.3522315510       -3.7816343469
 H        -9.0647776467        9.2954145360       -2.1063786025
 H        -9.6175961037        6.4821714452       -1.5930170905
 H       -10.1640931360        6.8041641589       -3.1128235797
 H       -12.3860197785        8.0437510928        2.1333117276
 H       -10.5764038239        8.1290255279        1.8800589377
 H       -11.8404347499        5.7042915470        3.3500060290
 H       -11.6836624455        7.2002110606        4.1531939181
 H        -8.4533500942        3.1388668455        6.0733421753
 H        -9.4544063027        2.2875398144        4.8805086107
 H       -10.2795925510        3.2817383754        6.0814926752
 H        -6.9592748458        5.3829879621        4.5871877311
 H        -7.3945395317        6.2893471067        6.1412717308
 H        -7.5149743422        7.0368797598        4.6053371523
 H        -9.7689440898        7.0831172534        6.4741140177
 H        -9.5914150632        5.4325139913        6.9860790319
 H       -11.0430448640        5.6821016342        5.9801469038
 H       -14.2236903537        7.2871964426       -1.0170332801
 H       -13.5801742469        8.7300344859       -0.0933429714
 H       -13.9033315655        7.3038951558        0.8392575143
 H       -11.3582368403        5.2478830896       -1.6500138464
 H       -12.8443420231        5.8420742031       -2.4242751050
 H       -12.8025972846        4.8982070965       -0.9979714991
 H        -4.8552002909        9.7260890589       -0.7044788254
 H        -5.0795422017        8.2428726095       -0.0877176634
 H        -6.3674723531        9.4622996286       -0.0445041966
 H        -6.5044549716       10.7922944761       -2.2342612844
 H        -7.1885309794        9.9241768698       -3.4416094203
 H        -5.5842505045       10.2757333508       -3.4834645137
 H        -3.9144397331        1.4458748651       -1.7651227190
 H        -5.2403091611        0.5622720995       -1.3264380606
 H        -4.6433912440        1.8160985584       -0.1902555810
 H        -6.3424964055        1.9870980494       -3.7331297614
 H        -4.6170457203        2.0494312304       -3.7176138264
 H        -5.6744580199        3.5788170598       -3.9742117066
 H        -9.2422898692       -0.4303106093        3.0357618785
 H       -10.4113983656       -1.4835818229        2.4612146343
 H       -10.8312396446        0.3142185240        2.7217855090
 H        -8.5471810929       -1.1534639342       -0.5574435540
 H        -8.7318973905       -2.1535967019        0.8156904285
 H        -7.8388073076       -0.6352785612        0.9549651303
 H       -15.2507838275       -5.5335101202       -1.5027160210
 H       -14.5555227622       -5.7828605316       -0.0763350562
 H       -13.7115740871       -4.8119090333       -1.2825565472
 H       -16.1603899492       -1.8046614914       -0.8853772774
 H       -16.4535257832       -3.1346779929       -2.0549522621
 H       -14.9146241262       -2.6029449839       -1.9330241902
 Na       -8.6430937814        4.6845102948        1.3468955901
