117

 C       -15.7831198626       -4.6601904549        2.2905877139
 C       -16.5117259734       -3.8204817167        1.3029084207
 O       -17.7055270944       -3.3637503781        1.2593026227
 C       -15.5613565132       -3.3876154799        0.1587010724
 C       -14.2634389921       -2.6969458006        0.8280935987
 O       -14.0548663783       -2.7905535409        1.9854247312
 C       -13.2418033131       -1.9403804066       -0.0534881145
 C       -12.1168722245       -1.3699737952        0.9477569088
 C       -10.9803741258       -0.3438122263        0.3649707267
 O       -11.2132029999        0.3152401307       -0.5986032165
 C        -9.5997248124       -0.1326898822        1.0253664445
 C        -8.9028205425        1.0694082029        0.2303653888
 O        -8.9767841384        2.1522590239        0.8053308827
 C        -8.0927513201        0.9238764310       -1.0236548197
 C        -7.9391354295        2.2917287469       -1.6677462955
 C        -6.7372890223        3.0034479300       -1.1325306327
 O        -6.7820049583        3.5449364974       -0.0304494082
 C        -5.4879515654        2.5846555601       -1.9548398939
 C        -4.6537249376        4.0019532284       -2.3019082454
 O        -3.5213354571        3.8915566631       -2.7555799328
 C        -5.3546207569        5.3851742197       -2.0655169572
 C        -4.4005170891        6.5681573166       -2.0387283953
 C        -4.9019603144        7.9228567038       -2.7028396864
 O        -4.5556983609        8.1142906382       -3.8343315882
 C        -5.8864656201        8.8254565610       -2.0057378443
 C        -7.2203925365        7.9509209409       -1.6466072142
 O        -7.1636526767        6.9925441785       -0.9226333850
 C        -8.4855248628        8.0255909257       -2.5885127600
 C        -9.4468803156        6.9708065766       -2.1183152455
 C       -10.6971888205        7.5925446069       -1.6352555857
 O       -10.6627965817        8.8106376851       -1.7091797904
 C       -11.9704503209        6.8654588592       -0.8388063506
 C       -11.4624920846        6.5868501457        0.6107289683
 O       -10.4602937987        5.9435523731        0.6552238193
 C       -11.9978602062        7.3693496302        1.7783198600
 C       -11.5572698808        6.8526852444        3.1199586503
 C        -9.9930622136        6.7347559763        3.2141047580
 O        -9.1125368981        7.3053239466        2.5459380058
 C        -9.4992234584        5.7553400200        4.4008827408
 C        -9.8134284150        4.2185819280        4.2500171463
 O        -9.3707271148        3.5270829669        3.2951103747
 C       -10.4408982930        3.5096083270        5.4046794742
 C        -7.8899381330        5.9563891893        4.6182544625
 C       -10.2262016227        6.4180651304        5.6946913419
 C       -13.2329481524        7.6936993796       -0.9858220979
 C       -11.9982000147        5.4565040436       -1.5178844870
 C        -5.2846930943        9.2252035286       -0.5944191087
 C        -6.2718278960       10.0413700068       -2.9378866844
 C        -4.5323414502        1.6372639031       -1.0631600465
 C        -5.7735674053        1.9869331311       -3.4643644882
 C        -9.5239054848        0.1859682525        2.6060514137
 C        -8.6539542223       -1.5159433032        0.9826326319
 C       -14.8321578189       -4.5459832923       -0.5887152987
 C       -16.0790830142       -2.4552267456       -0.9548825013
 H       -16.1798994585       -5.7049930164        2.3575433285
 H       -15.9321625730       -4.3480681365        3.2597343708
 H       -14.7107532435       -4.8289184479        1.9891061837
 H       -13.5501549849       -1.1587472268       -0.7160500868
 H       -12.7441832220       -2.5017844626       -0.8055606975
 H       -11.6797015357       -2.2903832188        1.3692586245
 H       -12.6903134583       -0.9472910263        1.7807605569
 H        -8.5072536667        0.1982351548       -1.7906483601
 H        -7.1215040260        0.5968804617       -0.7283051926
 H        -8.8187088669        2.9182106627       -1.3969595383
 H        -8.0667929542        2.3044873730       -2.7956275138
 H        -5.9737795828        5.3086444967       -1.0805583347
 H        -6.1098298021        5.5933794863       -2.8079118380
 H        -3.4726944804        6.0975360397       -2.3714487127
 H        -4.2234464830        6.7774214497       -0.9903318704
 H        -8.0236551320        7.7889933083       -3.6747507958
 H        -9.0742046202        9.0697709785       -2.6288825837
 H        -8.9942784321        6.3387815454       -1.3777303885
 H        -9.7485135435        6.2749726665       -2.9028529206
 H       -13.0774172244        7.3037749989        1.7492286342
 H       -11.7656540399        8.4060817110        1.9293321043
 H       -11.9692470069        5.9233933251        3.3031293224
 H       -11.8804124244        7.5120668433        3.8775394807
 H        -9.9342367235        3.6942257471        6.3298345470
 H       -10.4202705029        2.4728801380        5.1877922198
 H       -11.4814891654        3.7943280878        5.4470873917
 H        -7.4336333865        6.2380524403        3.6413331365
 H        -7.4282821405        5.0243785083        4.8427911614
 H        -7.6514815517        6.7243982634        5.3156055603
 H       -10.1957692506        7.4707681936        5.5647435000
 H        -9.5047152919        6.2206854042        6.4353460639
 H       -11.1508326897        5.8864388065        6.0323638763
 H       -13.1514592414        8.3956294627       -1.9222295292
 H       -13.3482507523        8.3119569810       -0.1162943778
 H       -14.2105606866        7.0816770084       -1.1114747787
 H       -11.1565572360        4.8663608346       -1.1082643233
 H       -12.0151336545        5.3913879823       -2.6314435175
 H       -12.9055136961        4.8860929242       -1.3346039677
 H        -4.3572790599        9.7635058742       -0.7473524387
 H        -5.1366569388        8.5371035497        0.1763314358
 H        -5.9276556373       10.0009807255       -0.0977387835
 H        -5.5184016485       10.5492761178       -3.5328923598
 H        -6.6818890355       10.9313798056       -2.4202116357
 H        -7.0553793175        9.8415805236       -3.6850876635
 H        -3.6383854552        1.5899598851       -1.5618871948
 H        -4.8738318520        0.5755551355       -1.0970246493
 H        -4.4765858490        1.9100619254       -0.0153233037
 H        -6.2976065334        1.0094540382       -3.3760078962
 H        -4.8726237752        1.8648791935       -4.1118149537
 H        -6.3981990483        2.6701225254       -4.0390443867
 H       -10.4823801620        0.1273587434        3.0108199782
 H        -9.2547605057        1.2313981922        2.9114276356
 H        -8.9636364788       -0.5392571748        3.1845859011
 H        -8.5974754144       -1.8737480069       -0.0555141205
 H        -9.0869498526       -2.3388844941        1.5228580985
 H        -7.6823839628       -1.2518274251        1.4632250317
 H       -15.5217785551       -5.3591396328       -0.9735486966
 H       -14.1311617599       -5.1523828197        0.0538879594
 H       -14.3386763330       -4.1322563637       -1.5333352828
 H       -16.3024861078       -1.4616962418       -0.4858617069
 H       -17.0301742881       -2.8377818010       -1.3789387255
 H       -15.2869249704       -2.4848019655       -1.6397993799
 Na       -8.7556337936        4.3388495105        0.8483304383
