117

 C       -16.1328326148       -4.8944844413        2.3565870329
 C       -16.4627622368       -3.7025916515        1.5626360243
 O       -17.5136099734       -3.0620189737        1.6097308467
 C       -15.2908621453       -3.1916777190        0.5000984090
 C       -14.2157292965       -2.3559829777        1.3310240598
 O       -14.2185434985       -2.3757167039        2.5593596697
 C       -13.2840021050       -1.5171439816        0.5912287540
 C       -12.0183263625       -1.1954241456        1.3809878378
 C       -10.9714328414       -0.3937309410        0.5658838534
 O       -11.1253949478       -0.0466214893       -0.5772537904
 C        -9.5691411170       -0.2849030070        1.2418688813
 C        -8.9965840305        1.0121228614        0.4306343860
 O        -9.0688215129        2.1106753775        0.9325191821
 C        -8.4621132870        0.6930629655       -0.9103532963
 C        -8.0294845515        1.9027730265       -1.8479583481
 C        -6.7103210228        2.5509918245       -1.3643506786
 O        -6.7259125562        3.4660937160       -0.5402619585
 C        -5.3570711503        2.4238031892       -2.0426333262
 C        -4.8289550224        3.9133687810       -2.5771234716
 O        -3.7277910100        3.7657533265       -3.1192023198
 C        -5.4230785341        5.2714144531       -2.2449294915
 C        -4.3604235884        6.3896685671       -2.1004044021
 C        -4.8804063934        7.5797839287       -2.8842265740
 O        -4.8454540189        7.8274084944       -4.0422175072
 C        -5.8591357920        8.7677640613       -1.8656227989
 C        -7.0863402877        8.0262858934       -1.4134401044
 O        -7.1697329369        7.5802552114       -0.3186249994
 C        -7.9269192265        7.4245536541       -2.6175966205
 C        -9.3014092444        6.9199129366       -2.3245905896
 C       -10.4236148389        7.7009295247       -1.6467943336
 O       -10.4432493404        8.8956807891       -1.5279640790
 C       -11.7701879345        6.7639207344       -1.3011291854
 C       -11.5470304936        6.3549394500        0.2430574630
 O       -10.8397333485        5.3450497785        0.4809373351
 C       -11.9382491610        7.2416899945        1.3922358598
 C       -11.6326422247        6.6922321597        2.7594135810
 C       -10.1437710702        6.8725421923        3.1780505219
 O        -9.2502659831        7.4053194564        2.4724178090
 C        -9.6694009438        5.9887533113        4.3852852642
 C       -10.1943684801        4.5894047306        4.0826223181
 O        -9.7845229731        4.0762480485        3.0573471117
 C       -11.1560438029        3.7516458135        4.8650307261
 C        -8.0761785474        5.9346287150        4.2643489424
 C       -10.0677469694        6.6286252121        5.7689514083
 C       -13.0639890401        7.6296039647       -1.4435851680
 C       -11.7438005427        5.4407918411       -1.9825594065
 C        -4.9192053067        9.2623033501       -0.6402233626
 C        -6.2619163697        9.9932454868       -2.8205604107
 C        -4.2700407765        2.0201699518       -0.9605933104
 C        -5.2079564727        1.5452800095       -3.3186476052
 C        -9.6152380554       -0.0385730257        2.8494153818
 C        -8.7900356037       -1.5916491139        0.9192628151
 C       -14.7786024283       -4.2229973051       -0.5763699688
 C       -16.0762649067       -2.0741083591       -0.4517318700
 H       -16.9213289200       -5.4400098889        2.9203403123
 H       -15.4664819850       -4.5266444616        3.1117033006
 H       -15.4531583068       -5.6013027510        1.7709756745
 H       -13.7832242650       -0.5231946752        0.2769376008
 H       -12.9729726092       -1.8384443703       -0.3705683859
 H       -11.8150847423       -2.1331183329        1.8150226716
 H       -12.4198724638       -0.5298379948        2.2288212132
 H        -9.1577255448        0.0709920849       -1.5366486399
 H        -7.6371450585        0.0270093015       -0.7079050541
 H        -8.7747378802        2.6026921758       -2.0871536712
 H        -7.6740853496        1.3803091021       -2.8393820777
 H        -6.1201483192        5.2553063461       -1.3681339422
 H        -6.0598992709        5.4861119403       -3.0416145987
 H        -3.3682755155        5.9495321254       -2.4521159365
 H        -4.1357954899        6.6177695323       -0.9986504162
 H        -7.3212873899        6.5603502995       -2.9710744582
 H        -7.9038144766        8.1020181123       -3.4963259909
 H        -9.2461961987        5.8626201583       -1.9884545058
 H        -9.7698801705        6.7853396977       -3.3572215841
 H       -13.0109408838        7.4725891228        1.5190308531
 H       -11.4567613195        8.2012908086        1.2332461601
 H       -11.9194486927        5.6077073571        2.5296307612
 H       -12.3276542366        7.1195317132        3.5190136511
 H       -10.7842857745        3.7080460028        5.9372048463
 H       -11.2572337083        2.7472014323        4.5120788705
 H       -12.2068602164        4.1406795867        4.8122491585
 H        -7.5774380524        5.1039296456        3.7835804898
 H        -7.6732842182        5.7377285801        5.3012653437
 H        -7.8360351615        6.9453352549        3.8601230982
 H        -9.2591079801        7.2536535629        5.8605273947
 H       -10.0588237546        5.8369924422        6.5004823607
 H       -11.0928903016        7.1905526223        5.7434930136
 H       -12.9650148902        8.3987462226       -2.1605416585
 H       -13.3654492793        8.0257161541       -0.5709026883
 H       -13.7460076282        6.9359088610       -1.8430990409
 H       -10.8310885525        4.8870590740       -2.0061442209
 H       -11.9153593243        5.5850325511       -3.0987027873
 H       -12.5715981558        4.8295096028       -1.6575250019
 H        -4.0063493056        9.7208075805       -0.9679488202
 H        -4.7114920708        8.3595539158       -0.0499257700
 H        -5.3628745542        9.9311774592        0.1898244392
 H        -6.2741314080        9.7258662635       -3.8647202451
 H        -5.5499600911       10.8051826213       -2.9023635915
 H        -7.3075044687       10.3912500403       -2.6647616078
 H        -3.3498671137        2.2226403445       -1.4473472598
 H        -4.2842072740        0.9460288830       -0.5517063184
 H        -4.3104941154        2.7794341974       -0.1446779838
 H        -5.4208216337        0.4909625287       -3.2380598043
 H        -4.2360102352        1.8044711774       -3.7672291050
 H        -5.7806937153        1.9682315991       -4.0739030401
 H        -8.6377104825       -0.3053426268        3.2697119498
 H       -10.2286523702       -0.7307026754        3.4200338317
 H        -9.7570983078        1.0030457963        3.1800702975
 H        -8.7729615112       -1.8649326186       -0.1196083584
 H        -9.2199572837       -2.3757840150        1.5820478402
 H        -7.7368508755       -1.3924853952        1.2095887990
 H       -15.5978640682       -4.4794712384       -1.1864255788
 H       -14.2674896573       -5.0765628832       -0.1740700115
 H       -13.9879653243       -3.8009498287       -1.1732111503
 H       -16.7380761057       -1.4045237364        0.2207465738
 H       -16.6511524414       -2.7525280495       -1.1123011337
 H       -15.3176119186       -1.4975113003       -0.9299640540
 Na       -8.5016019639        4.5250291931        1.1551556654
