117

 C       -16.3354876728       -4.8794346407        2.1432816804
 C       -16.5722616419       -3.5185709017        1.7768533666
 O       -17.6356792824       -3.0642194226        1.9943641167
 C       -15.5173979034       -2.7476234491        0.8874139418
 C       -14.3700239691       -2.0592239083        1.7548869055
 O       -14.3655143497       -2.4222913847        2.9617753019
 C       -13.3553310237       -1.2091133156        1.0906823789
 C       -11.9059977838       -1.0501354491        1.8656295896
 C       -10.9621689097       -0.5662261543        0.8260413274
 O       -11.2612297204       -0.3737233798       -0.3259417107
 C        -9.4611545535       -0.2214934553        1.2599174959
 C        -8.8374094870        0.8800717166        0.4265979133
 O        -8.7769617892        1.9596514440        0.9050998485
 C        -8.2518366578        0.5933189247       -0.9487215059
 C        -8.0314303473        1.8561740318       -1.7691561137
 C        -6.6529732283        2.6810828582       -1.4067151293
 O        -6.6532939631        3.5763314502       -0.5476203401
 C        -5.2430185372        2.3500335993       -1.9275199120
 C        -4.5327035097        3.7844073101       -2.6734271077
 O        -3.6598536837        3.6050175415       -3.5446234397
 C        -5.2111557634        5.1469708931       -2.5201973590
 C        -4.3007411840        6.4371769588       -2.4434194161
 C        -5.0339831185        7.5949739290       -2.8738843376
 O        -5.1325003734        7.7346449598       -4.1020350397
 C        -5.5705377119        8.6551472488       -1.9194472465
 C        -7.1356091141        8.1937448790       -1.4618180441
 O        -7.4224114409        7.9639433799       -0.3300424035
 C        -8.0331243217        7.7573317076       -2.6327697954
 C        -8.9183547914        6.5712938198       -2.0912273426
 C       -10.2621030871        7.2727462045       -1.6881471433
 O       -10.2549780376        8.4348464423       -1.3666059239
 C       -11.7376561017        6.5242554488       -1.5196611854
 C       -11.5940959765        6.1188197662       -0.0003200214
 O       -10.7916636647        5.1425024020        0.2176220625
 C       -11.9151756520        7.2347983047        0.9257608746
 C       -11.6890062516        6.9067199031        2.4579501042
 C       -10.1319523159        6.8430282912        2.8594509961
 O        -9.3564625831        7.6290887535        2.2829119507
 C        -9.7775814950        6.0324498627        4.0893310666
 C       -10.3947504901        4.5943343068        3.8624616601
 O        -9.8985131845        3.8845391199        3.0352880282
 C       -11.5333383786        4.2699527293        4.7970400695
 C        -8.2098407249        5.8863613148        4.2309188098
 C       -10.2588918497        6.8258643744        5.5226787138
 C       -12.7040198348        7.7813156577       -1.7317454223
 C       -11.9162658725        5.5106832895       -2.6898761399
 C        -4.7759037426        8.7369077866       -0.6320466559
 C        -5.6867034039        9.9990636839       -2.7032777369
 C        -4.3691683968        2.2255114666       -0.6540727039
 C        -5.1699404198        1.1139502550       -2.7663408469
 C        -9.4509396143        0.1799364490        2.7675370750
 C        -8.6888589519       -1.5792055409        0.9436916474
 C       -14.6896977905       -3.8600051785        0.0697500120
 C       -16.3754794408       -1.8502267879       -0.1597607864
 H       -16.7409508964       -5.0202574101        3.1471166627
 H       -15.2694263981       -5.1361863877        2.0289149752
 H       -16.7228025151       -5.5809077504        1.3944882033
 H       -13.6387563843       -0.1208964836        0.9498224353
 H       -13.1718064359       -1.6264785194        0.1137999280
 H       -11.6379521990       -1.9117574909        2.3865581623
 H       -12.2240001801       -0.3604509329        2.6693442423
 H        -8.7994356251       -0.1713490159       -1.4654796012
 H        -7.2650559252        0.0272830414       -0.7620611139
 H        -8.7501982320        2.5587562134       -1.5684287142
 H        -7.9258495850        1.6391383492       -2.8878523662
 H        -6.0167280205        5.3650209556       -1.8380531185
 H        -5.7449249095        5.2073170972       -3.5473499702
 H        -3.5658864346        6.3767675686       -3.1304066678
 H        -3.7812004964        6.5951821844       -1.5378309850
 H        -7.5695916150        7.4696551382       -3.4775784604
 H        -8.5855496082        8.5298212936       -2.9004603171
 H        -8.4626049275        6.0386655394       -1.2706064465
 H        -8.9495551462        5.8346313754       -2.8632761917
 H       -12.9379438242        7.6453972349        0.9297686089
 H       -11.2469247096        8.0865057988        0.6994435726
 H       -12.2610726950        5.9334544792        2.7065602027
 H       -12.0973084474        7.7610116740        2.9928011057
 H       -11.1426023675        3.8921986860        5.8136995283
 H       -12.2093419241        3.5741478522        4.3873898554
 H       -12.1246739746        5.1885260611        4.9484046358
 H        -7.7486709264        5.4193804066        3.4224770992
 H        -7.9782006245        5.1264782953        5.0115775651
 H        -7.7547547903        6.8563025424        4.4557333148
 H        -9.5306826664        7.4819159622        5.9388122890
 H       -10.5568857767        5.9603315717        6.0930907996
 H       -11.0301454662        7.5516697293        5.0989449046
 H       -13.2907555739        7.6913068274       -2.7306107405
 H       -11.9706986681        8.5403120927       -1.9088839622
 H       -13.4029228548        7.9595089033       -0.8946422046
 H       -11.2985942179        4.6247724028       -2.5497766567
 H       -11.5148679667        5.8559503498       -3.6613558109
 H       -12.9417476962        5.1645355946       -2.6818530620
 H        -3.7684144642        9.0020037400       -0.7397987833
 H        -4.8093693594        7.7139826509       -0.1647647149
 H        -5.1950561492        9.4701290169        0.0643711115
 H        -6.4837512669       10.0314736250       -3.4031641361
 H        -4.8317513615       10.1704510344       -3.2623495428
 H        -5.9236329647       10.8548579329       -2.0151873141
 H        -3.3566237440        1.8834546818       -0.7610875625
 H        -5.0218917414        1.6255753393       -0.0277346811
 H        -4.2035590771        3.1762162609       -0.1501633621
 H        -5.6404454534        0.2987796595       -2.1035809061
 H        -4.0556173732        0.8533220849       -2.8800666287
 H        -5.7286217103        1.2393060273       -3.7145001670
 H       -10.1602133186        1.0527761096        3.0066952845
 H        -8.5330061029        0.5740408748        3.1460847802
 H        -9.8381489941       -0.6704501775        3.3525646249
 H        -8.7058559098       -1.8536176832       -0.0595927372
 H        -9.2273960187       -2.2932232050        1.5967592008
 H        -7.6647056913       -1.4874953230        1.1635464269
 H       -15.3982780063       -4.5409609015       -0.3879448425
 H       -13.7648934409       -4.2613700734        0.5039898135
 H       -14.2240117473       -3.3238622543       -0.8073690750
 H       -15.9544353652       -0.8580111605       -0.1266544433
 H       -17.3186229162       -1.9539051589        0.2255870552
 H       -16.2893855286       -2.2250710911       -1.0940066606
 Na       -8.7138359192        4.2683165304        0.9494825041
