117

 C       -16.5077913365       -4.9875472435        2.3997903111
 C       -16.6067785453       -3.5164925806        1.9021646606
 O       -17.6546385534       -2.9376428846        2.2935594108
 C       -15.5408260109       -2.7049133650        1.0400835075
 C       -14.5380722158       -2.0267682892        2.0195181651
 O       -14.4162783141       -2.3283850934        3.1711913838
 C       -13.5762038761       -0.8856814079        1.3841308901
 C       -12.1150089457       -0.8830337509        1.8720134167
 C       -10.9543861820       -0.5433127039        0.9196665619
 O       -11.1982175646       -0.4750613607       -0.2782428546
 C        -9.3299074941       -0.3045940667        1.3120012639
 C        -8.8006490755        0.8414899915        0.3665987230
 O        -8.6489070998        1.9443103064        0.9080848001
 C        -8.1464327145        0.6882668294       -1.0481392836
 C        -7.8921865490        1.9743229916       -1.7870699667
 C        -6.7691240042        2.8192638461       -1.1047607702
 O        -6.9258589062        3.8184646255       -0.4606031065
 C        -5.1774961436        2.4417874506       -1.6133133048
 C        -4.5598155410        3.5456789358       -2.7132182675
 O        -3.8085673346        3.1732741949       -3.5963597250
 C        -5.2347321845        5.0316063091       -2.6747951180
 C        -4.2520851148        6.1857719275       -2.7908405804
 C        -4.9880011451        7.5261002153       -3.0761882358
 O        -5.3648855398        7.7488280477       -4.2091183402
 C        -5.3547270767        8.4399939052       -1.9617410601
 C        -6.9423597648        8.1059520538       -1.6243124622
 O        -7.2749614310        8.2206546489       -0.4496631678
 C        -7.8892795084        7.6311681515       -2.6768930501
 C        -9.0306291803        6.6580964966       -2.3341790186
 C       -10.1664362851        7.5284524045       -1.8109628815
 O       -10.0289699683        8.5039858374       -1.1326509681
 C       -11.5691123216        6.6712964781       -1.7761253369
 C       -11.4481750700        6.2368876567       -0.2831562981
 O       -10.9878687062        5.1760051972        0.0033389010
 C       -12.0240375587        7.2014929010        0.7820797802
 C       -11.5607606893        6.8031443075        2.2015524227
 C       -10.1133024610        6.9329052695        2.5638499771
 O        -9.2802253210        7.5890130698        2.1317470011
 C        -9.7334104920        6.1210935234        3.9147403166
 C       -10.4757797301        4.7257510554        3.8390593960
 O        -9.9843243291        3.8530346292        3.1131808269
 C       -11.8260127605        4.1690916178        4.5973061008
 C        -8.1517638152        5.8772596928        4.0077168253
 C       -10.4414366868        7.0103501038        5.0792664628
 C       -12.8173372326        7.5074021606       -2.0734099462
 C       -11.6776395386        5.2727944491       -2.5672252970
 C        -4.5990758015        8.4460842420       -0.5373963672
 C        -5.4115412994        9.9289039106       -2.4170318443
 C        -4.2238564793        2.3380913591       -0.3809268687
 C        -5.0359454222        1.1539896531       -2.5322121484
 C        -9.1553279526        0.1340635152        2.8357341886
 C        -8.5356857009       -1.6555982647        1.2594676299
 C       -14.7415410271       -3.6241491971        0.0398406370
 C       -16.2843004752       -1.6195832008        0.2547465774
 H       -16.9179299767       -4.8592035697        3.4015870340
 H       -15.6322719486       -5.6536312585        2.2109500586
 H       -17.2148204991       -5.5698480584        1.8168441805
 H       -13.9236789712        0.0954270270        1.6420515057
 H       -13.4494792242       -0.9779015778        0.2742052791
 H       -11.8883333828       -1.8821170568        2.4057050805
 H       -12.1460698826       -0.2380680988        2.7267501084
 H        -8.7427902100       -0.0715378240       -1.6151965596
 H        -7.2212545598        0.1807136069       -0.9741278961
 H        -8.7438544801        2.7137768579       -2.0377992281
 H        -7.3257525159        1.7554570313       -2.6191147385
 H        -5.6075069687        5.2188979294       -1.6690338528
 H        -6.0414609080        5.1894067954       -3.3331689539
 H        -3.6176600200        5.9519059537       -3.7586714068
 H        -3.5045322251        6.3391470788       -1.9515291149
 H        -7.2203518792        7.1623561035       -3.5826057163
 H        -8.4400856177        8.5503933628       -3.2323539858
 H        -8.7457784285        6.0029035912       -1.4852931440
 H        -9.2241283453        5.9575772768       -3.1847334295
 H       -13.1058915821        7.1718761121        0.8250145629
 H       -11.7595744214        8.2626915658        0.7657634928
 H       -11.7312147738        5.7302157724        2.2045768877
 H       -12.1667042189        7.2646001492        3.0525354648
 H       -11.4987120824        3.5949834656        5.4533541614
 H       -12.3491533791        3.4135475205        3.9139295843
 H       -12.6194507398        4.8608434315        4.9285252928
 H        -7.6524892147        5.6271151276        2.9828403848
 H        -7.9838981638        4.9921654632        4.6142688972
 H        -7.5630757372        6.6908861512        4.4859890093
 H       -10.6361571837        8.0282876330        4.6652919809
 H        -9.7356301593        6.9288251177        5.9029542509
 H       -11.4099489663        6.7223741220        5.2161187819
 H       -13.4619923500        6.9196271759       -2.5850230735
 H       -12.5304826765        8.3361742536       -2.7781546344
 H       -13.1417271926        7.8393815378       -1.1607226796
 H       -10.8466476251        4.5957846054       -2.2754957642
 H       -11.4870308351        5.4611386595       -3.6036250302
 H       -12.6011670756        4.7173998798       -2.3577095691
 H        -3.5123112942        8.8332222850       -0.6820157058
 H        -4.5302978238        7.5989745542        0.1505649026
 H        -5.0333189391        9.3498889636       -0.1714470646
 H        -6.0242808350       10.1392453574       -3.3377050554
 H        -4.3737595228       10.3995763330       -2.5263549262
 H        -5.8463577147       10.4964009473       -1.6314390010
 H        -3.1666240955        2.5334920508       -0.7484143040
 H        -4.3870477050        1.3748612927        0.0867240482
 H        -4.3175469136        3.1207736010        0.3807284005
 H        -5.4860598220        0.3506144244       -1.9813718574
 H        -4.0205874019        0.9174747515       -2.5430571363
 H        -5.4964080047        1.2944076978       -3.5439670891
 H        -9.4596439364       -0.7188461286        3.4443120622
 H        -9.7589693567        1.0029996316        3.2058116684
 H        -8.0894463183        0.2373181692        3.0821297855
 H        -8.5342547819       -2.0208502710        0.2204959004
 H        -9.0542850990       -2.3418840222        1.8605933890
 H        -7.5037353150       -1.5197918112        1.5385143057
 H       -15.4208156132       -4.0029591545       -0.6887583759
 H       -14.2494958683       -4.4101975018        0.5680178002
 H       -14.0193042289       -3.0703005487       -0.4634919779
 H       -15.6871328995       -1.4807524139       -0.6323311971
 H       -16.3576166040       -0.7454372263        0.9321252291
 H       -17.3667411977       -2.0225022660        0.0446990899
 Na       -9.2771227804        4.1189126492        0.9683349492
