117

 C       -16.3104755947       -4.7335132865        2.4394262030
 C       -16.5952366870       -3.3084414955        2.0708325313
 O       -17.5777702717       -2.6912099873        2.5232049226
 C       -15.5256723667       -2.6085230940        1.1879812972
 C       -14.3493234576       -1.9137666411        2.2274779767
 O       -14.2064884461       -2.1958137253        3.3760198668
 C       -13.4244116475       -0.8957556558        1.4659093432
 C       -11.8661328025       -0.9194320015        2.0187888979
 C       -10.8504577836       -0.4763079250        0.9330694064
 O       -11.1474240674       -0.5577894768       -0.2148030016
 C        -9.2688183014       -0.2733005697        1.4491902875
 C        -8.7352502755        0.7823159624        0.6171660713
 O        -8.8441836635        1.9691846530        0.9522039328
 C        -8.3916643896        0.5286542534       -0.8590936868
 C        -8.0421869339        1.8044337701       -1.6150912409
 C        -6.8275300297        2.6515731727       -0.9397072708
 O        -7.0539471372        3.7173774630       -0.3860954200
 C        -5.3899189671        2.4625580795       -1.4670817015
 C        -4.8304908448        3.6566458414       -2.7476568487
 O        -3.9007270748        3.1956645190       -3.2884996141
 C        -5.2455466235        5.1232586618       -2.4975364331
 C        -4.1066285870        6.0372551253       -3.1135215744
 C        -4.7371650569        7.4325268327       -3.2330086835
 O        -5.1623142662        7.7847662840       -4.3104379957
 C        -5.1468218233        8.2655586732       -1.9947638348
 C        -6.8370851013        8.0744713257       -1.6407683727
 O        -7.3064961241        8.1459354804       -0.5539194216
 C        -7.6890770661        7.6924178901       -2.9131000625
 C        -9.0023898484        6.9969606619       -2.6337319387
 C       -10.1748993162        7.5973186561       -1.9479502780
 O       -10.2995235365        8.6536717663       -1.3975387497
 C       -11.5154286233        6.5894654923       -1.8580992582
 C       -11.6499068834        6.2368997027       -0.3299567593
 O       -11.2353145924        5.0794620721        0.0629791548
 C       -11.9748781374        7.3102860586        0.6887091934
 C       -11.8858266247        6.7727981981        2.1182809088
 C       -10.3704905435        6.8326979706        2.5417204816
 O        -9.4625423937        7.2915490912        1.7704199506
 C        -9.8155357332        6.1673663729        3.7990110862
 C       -10.5293126406        4.6414269201        3.7198885028
 O       -10.0167050687        3.7535302225        3.0823130445
 C       -11.7568156883        4.4439929516        4.5893654586
 C        -8.2854006139        5.9308930855        3.9838766627
 C       -10.2740889236        6.9586910518        5.0111058988
 C       -12.6823152765        7.4018732936       -2.4790458629
 C       -11.2516850538        5.3775556680       -2.7880273290
 C        -4.2281038248        7.8493680750       -0.8187057565
 C        -5.2087003235        9.7521526684       -2.3817215060
 C        -4.3368686485        2.8138137883       -0.2986060277
 C        -5.1697234493        0.9484937182       -1.9253051085
 C        -9.2781754298        0.0227389521        2.9769108936
 C        -8.7921843331       -1.7115844936        1.0035362329
 C       -14.9736143224       -3.5228307489        0.1859486856
 C       -16.2342695943       -1.3979202777        0.5293888731
 H       -16.5712454485       -4.8818724097        3.4650712171
 H       -15.3578107021       -4.9786530160        2.2189703842
 H       -16.7456109447       -5.4544515448        1.7519005182
 H       -13.9410619878       -0.0002276972        1.8801812278
 H       -13.2577919088       -0.8677306260        0.4411348883
 H       -11.6692506713       -1.8529655589        2.4484222940
 H       -11.7590391584       -0.2356121165        2.9208641687
 H        -9.1275632358       -0.0553390737       -1.3770310065
 H        -7.5149752477       -0.1924877739       -0.8008208474
 H        -8.8024641757        2.5035869170       -1.6729151243
 H        -7.6217315024        1.6197982615       -2.6769239364
 H        -5.4234228688        5.2684857059       -1.4087567521
 H        -6.2595847145        5.3169123364       -2.9633810271
 H        -3.8421050479        5.5322948705       -3.9733195756
 H        -3.2730812878        6.0843197117       -2.4555722087
 H        -7.1282592593        7.1297629720       -3.4912213377
 H        -8.0042533283        8.4514341883       -3.4836917552
 H        -8.7962225009        5.9827382346       -2.2359141690
 H        -9.3366271858        6.8218540534       -3.6819299256
 H       -13.0113552966        7.6068535711        0.4605516618
 H       -11.3581349727        8.1898870945        0.6926015909
 H       -12.3150637295        5.7771668202        2.0865073313
 H       -12.3769767545        7.2913973378        2.8864153099
 H       -11.4595155752        4.3222237951        5.6246339227
 H       -12.3196569705        3.5696717290        4.3396500295
 H       -12.3133100182        5.3767194961        4.5739211986
 H        -7.8828261572        5.1914568019        3.3754963415
 H        -8.0989533527        5.7557146029        5.0790650617
 H        -7.6719507912        6.8255968587        3.8003239614
 H       -10.9901234657        7.6835266438        4.7759418594
 H        -9.4092853226        7.4666420862        5.3759175708
 H       -10.7862160189        6.2183792522        5.7088538711
 H       -13.6469358120        6.7899402608       -2.2887603355
 H       -12.5622287409        7.3577212699       -3.5460227079
 H       -12.5057399814        8.4954509665       -2.0279682328
 H       -10.4227458339        4.7019927438       -2.5689937712
 H       -11.2812573428        5.7260257740       -3.8718874094
 H       -12.1231344032        4.7372708161       -2.6355293166
 H        -3.2105387605        8.1032852248       -0.9560103614
 H        -4.2226979029        6.7798260379       -0.8556104566
 H        -4.6156136161        8.2295591941        0.1856186515
 H        -5.5265234377        9.8577556731       -3.4130614329
 H        -4.3106109226       10.3145335179       -2.1003664443
 H        -5.9637060656       10.3446913582       -1.7595925128
 H        -3.3761580228        3.0224109506       -0.6712143034
 H        -4.2513725602        1.9904283195        0.4575068423
 H        -4.6388753872        3.7144127701        0.2497080303
 H        -5.1277629103        0.2334077681       -1.1233806886
 H        -4.1931733789        0.9157213576       -2.4277538317
 H        -5.9302630241        0.8151818944       -2.6037150753
 H        -8.3989762358       -0.1927123290        3.5268183000
 H       -10.1160677000       -0.3842686649        3.4999242026
 H        -9.4235498254        1.1328438606        3.0048922681
 H        -9.1553357634       -1.8865172018       -0.0409291755
 H        -9.1957297084       -2.5280985894        1.6790939203
 H        -7.6462768938       -1.6922665304        0.9857997788
 H       -15.7902800167       -3.9167539541       -0.4648277002
 H       -14.6034293939       -4.4144354282        0.7551661600
 H       -14.1719542849       -3.0332620025       -0.4917851649
 H       -16.5497324927       -1.7008411673       -0.4799101338
 H       -15.5566050677       -0.5066834080        0.4938970099
 H       -17.0117064159       -1.2059818292        1.1994040469
 Na       -9.2366325400        4.0722631943        0.7638684475
