117

 C       -16.0939980374       -4.3063848535        2.9698668628
 C       -16.5777229585       -3.0227604065        2.4420260565
 O       -17.4534835802       -2.4514765206        2.9618470410
 C       -15.5729051069       -2.2300261078        1.3448231407
 C       -14.2814720954       -1.7925330051        2.1957595369
 O       -14.0752117092       -2.2877893049        3.3071324412
 C       -13.2880529076       -0.9625739073        1.4213366929
 C       -11.9446054204       -0.8669952968        2.0954081803
 C       -10.8079918017       -0.6084523424        1.1304250473
 O       -11.1012863753       -0.3745197574       -0.0295443620
 C        -9.2803000636       -0.6425449868        1.5036764143
 C        -8.8620126222        0.8150633087        0.8700498874
 O        -9.2337224620        1.8456242358        1.4132287609
 C        -8.2762712682        0.6143439484       -0.5959095998
 C        -8.0488352312        1.8526244850       -1.4787330240
 C        -6.9571482493        2.8567864304       -0.8964840063
 O        -7.3927264169        3.8304410167       -0.2908246610
 C        -5.4951365675        2.5302905450       -0.9995529517
 C        -5.0277544513        3.4255217045       -2.4051113055
 O        -4.3346021148        2.9278532286       -3.2444185445
 C        -5.4980659387        4.8583619398       -2.6826325177
 C        -4.5777596460        5.7204614414       -3.5557660372
 C        -4.6435457125        7.2325805055       -3.4452311401
 O        -4.3750254659        7.7616069750       -4.5172098401
 C        -5.0510528730        8.1374661733       -2.1218043498
 C        -6.6296969375        7.9670247355       -1.8422318625
 O        -6.9680240432        7.4901117497       -0.8063132916
 C        -7.7690081986        8.3978490431       -2.8605679150
 C        -8.7143392174        7.2133540899       -3.0176277622
 C       -10.0530061997        7.6120948525       -2.4092675063
 O       -10.2448819282        8.7450419093       -2.0366228246
 C       -11.3224367478        6.5321170547       -2.0694169744
 C       -11.5232386464        6.2279764537       -0.4897773307
 O       -11.3015126527        5.0976832067       -0.1195179348
 C       -12.1449874449        7.3345612731        0.4337529464
 C       -11.8272771775        7.1813840483        1.9078277451
 C       -10.4361205275        6.6562686164        2.2028225441
 O        -9.7008385854        6.4117981130        1.2417736702
 C        -9.9534289230        6.1350568791        3.5917679434
 C       -10.7396106996        4.7416066915        3.5807509315
 O       -10.3404171473        3.8374547235        2.8240135192
 C       -11.5978291063        4.2961549111        4.6990113432
 C        -8.3990567907        5.9783261164        3.6718378767
 C       -10.3779885169        7.1843635268        4.7512525377
 C       -12.6989348351        7.2814036417       -2.4844768595
 C       -11.1583610056        5.2089751613       -2.7593682272
 C        -4.2689762256        7.5316620236       -0.7714684925
 C        -4.6038609610        9.6052546376       -2.4694615952
 C        -4.7867047421        3.0219428246        0.3354129206
 C        -5.0096979173        1.0222799888       -1.3181511720
 C        -9.0244859646       -0.4166970946        3.0225325890
 C        -8.5337521972       -1.9009483649        0.9754258215
 C       -15.0198422672       -3.2997210109        0.3500280255
 C       -16.2979377868       -0.8858619421        0.9950096461
 H       -16.8761021733       -4.9277470244        3.4755008907
 H       -15.3580282398       -4.1052477508        3.7373561588
 H       -15.3769960975       -4.8182524150        2.3008206523
 H       -13.4687399532        0.0686979599        1.1482592149
 H       -13.1240630364       -1.5551950790        0.5236046066
 H       -11.6454920055       -1.7607944013        2.6949839133
 H       -12.1720524050       -0.1360765295        2.8860716921
 H        -9.0658532171        0.1407723942       -1.1222989400
 H        -7.4438276693       -0.1689991299       -0.6065775260
 H        -8.9649272707        2.3941530928       -1.7200292948
 H        -7.7824435830        1.3946976130       -2.4787088152
 H        -5.8546198467        5.3498616771       -1.8619539477
 H        -6.3422401916        4.5593062311       -3.3440717514
 H        -4.8019752425        5.3864992705       -4.5976865738
 H        -3.5098464335        5.3212797073       -3.2460809564
 H        -7.3321843428        8.7321712509       -3.7983791714
 H        -8.2847650661        9.2920189421       -2.3342462313
 H        -8.1009898195        6.3501111540       -2.6298729508
 H        -8.8950906933        6.9727310507       -4.0518869048
 H       -13.2372679836        7.3491105589        0.5065725882
 H       -11.8836395831        8.3544256266        0.1527212396
 H       -12.5585296741        6.4433463258        2.3298038592
 H       -12.0874715852        8.0541306242        2.4447066609
 H       -11.2877307248        4.7104860516        5.7053757804
 H       -11.6461064674        3.2363869648        4.7292183943
 H       -12.5873220752        4.7525472860        4.6412399299
 H        -8.0506951552        5.0411229963        3.3423600650
 H        -8.0023865546        6.3588764873        4.6671165146
 H        -7.8119104567        6.5918222859        2.9609176965
 H       -11.0349141840        6.7118601498        5.4344543209
 H       -10.9566302283        7.9747826448        4.3621665873
 H        -9.4067876687        7.5063568141        5.2888177330
 H       -13.4325144921        6.5337766741       -2.1742251721
 H       -12.7191938111        7.4493846956       -3.4753473348
 H       -12.7292420160        8.3056625801       -2.0078206211
 H       -10.3064788236        4.7683997864       -2.2552920252
 H       -10.9561194671        5.4357713325       -3.8045056606
 H       -11.9631121769        4.4792656572       -2.7097355286
 H        -3.2439122278        7.2715228016       -1.0113152029
 H        -4.7943212241        6.5318373556       -0.5221282636
 H        -4.5036349001        8.1005108281        0.1510047307
 H        -5.3606346384        9.9578790055       -3.1665166975
 H        -3.6081067084        9.6214022681       -2.8308024749
 H        -4.4788557017       10.2957658936       -1.5713914763
 H        -3.8008323944        2.5781261097        0.4622797231
 H        -5.2406939270        2.6693558493        1.2713793734
 H        -4.8436352983        4.1288421942        0.4700966761
 H        -5.2245473893        0.5156313380       -0.3616083600
 H        -3.9044167224        1.0981991532       -1.2605783042
 H        -5.4281805360        0.5654937454       -2.1564963462
 H        -9.4757666070        0.5932048793        3.2541830775
 H        -7.9573280199       -0.2547367058        3.2471880905
 H        -9.3850004203       -1.2333275013        3.6321267264
 H        -8.7129986705       -2.0494746837       -0.0365813736
 H        -8.9927675671       -2.7800362190        1.4544172440
 H        -7.5443547429       -1.9420150556        1.3353454685
 H       -15.7384468821       -4.0090667728        0.1245357674
 H       -14.2930230296       -3.8396243247        0.8812205647
 H       -14.6824673488       -2.9308258468       -0.5798088596
 H       -17.2302116575       -0.8205030295        1.6698881323
 H       -16.6096870715       -0.6990644301       -0.0957856612
 H       -15.6531379896       -0.1270425565        1.3810513251
 Na       -9.3192044335        4.4355436175        0.7718441892
