117

 C       -16.0316698093       -4.1424794753        3.3902484910
 C       -16.5159809558       -2.8445709821        2.7904198058
 O       -17.5818808175       -2.3615003451        3.1742247522
 C       -15.6432103046       -2.1197523623        1.6729550836
 C       -14.1957002569       -1.7840592868        2.2922883655
 O       -13.8670696224       -2.2698824530        3.3921281861
 C       -13.2638815946       -0.8441862774        1.5268698599
 C       -11.7775565688       -0.8307443014        2.1164571172
 C       -10.7669802577       -0.6155451205        1.0607100526
 O       -10.9537400175       -0.5291571040       -0.1131619780
 C        -9.1180171206       -0.5563504091        1.6784646166
 C        -8.7477479183        0.7571164143        0.8940839071
 O        -8.9717817704        1.8590066043        1.2986865684
 C        -8.1927690556        0.5585534911       -0.5565511738
 C        -8.0855828987        1.9240140346       -1.3181964172
 C        -7.0522038171        2.9302356187       -0.7058152188
 O        -7.4043944569        4.0278476459       -0.2305260771
 C        -5.5722100279        2.7059352873       -0.7437420400
 C        -5.2024072059        3.3508441674       -2.3519741171
 O        -4.5833894458        2.5717428792       -2.9761949230
 C        -5.7501952876        4.7307839320       -2.5559733117
 C        -4.7654385345        5.5532427594       -3.4845764865
 C        -4.7430922937        7.1838172645       -3.5855742622
 O        -4.0823216779        7.6400017695       -4.4707489127
 C        -5.0191056625        7.9529055069       -2.2283512318
 C        -6.5098495918        7.6889691927       -1.9265382769
 O        -6.7842166197        6.9303225798       -0.9883588937
 C        -7.5725138013        8.3746651680       -2.9045941027
 C        -8.8267625568        7.4298803143       -2.9936483415
 C       -10.1740460085        7.7548113534       -2.2642666675
 O       -10.5392701564        8.9357955231       -2.1090656162
 C       -11.2365460080        6.5952448793       -2.2280448183
 C       -11.5829934225        6.2290868098       -0.7221291945
 O       -11.4903763045        5.0645409396       -0.2877850076
 C       -12.0127082677        7.5019058598       -0.0161694382
 C       -11.6580510003        7.3072085334        1.6061475522
 C       -10.2861946148        6.6528398413        1.8599076187
 O        -9.4116178002        6.6606556000        1.0927155320
 C       -10.0489716936        6.1489298455        3.4070573724
 C       -10.8131825534        4.8609993348        3.5575830381
 O       -10.7167293228        3.9590192206        2.7679703944
 C       -11.3978397061        4.3783504720        4.9403018925
 C        -8.5736991226        5.9406788953        3.6606078598
 C       -10.5924727112        7.1747571189        4.3577356775
 C       -12.5269609846        7.1305150646       -2.9004473518
 C       -10.8131364798        5.3278072987       -3.0271382995
 C        -4.0488426713        7.3742616604       -1.1459814508
 C        -4.6694179078        9.3987321186       -2.3967002438
 C        -4.7285384340        3.4225912466        0.4148566034
 C        -5.2201282596        1.1825970133       -0.8471886827
 C        -8.9388845832       -0.5951373315        3.1902542428
 C        -8.4846867044       -1.7632732991        1.0061652092
 C       -15.7099117380       -3.0956373302        0.3483872245
 C       -16.3974742623       -0.8943809263        1.1100824001
 H       -16.8212924454       -4.8122689712        3.3077504410
 H       -16.1081759673       -4.0024913764        4.5201877470
 H       -15.1054581754       -4.5783742431        3.1526872019
 H       -13.6410612186        0.1868391875        1.6605041544
 H       -13.2915197642       -1.0391333055        0.4248442972
 H       -11.5940194427       -1.7945350339        2.5632157048
 H       -11.6615854620       -0.1211880030        2.9509095314
 H        -8.9469397117       -0.1014545673       -1.1330708529
 H        -7.3135047266        0.0218793255       -0.4465240240
 H        -9.0610295967        2.4937903832       -1.1555080221
 H        -8.1376552902        1.8997847796       -2.3837461963
 H        -5.7411931119        5.1064987638       -1.4513763660
 H        -6.7439997267        4.8303397513       -3.0240980587
 H        -5.0419257303        5.1667785451       -4.4304735235
 H        -3.8371302521        5.2527279524       -3.2289920668
 H        -7.0902466910        8.4884579397       -3.8498582889
 H        -7.8298579544        9.3066665215       -2.4839418396
 H        -8.3934075907        6.4812825719       -2.6613492776
 H        -9.0217573373        7.2842176683       -4.1076481632
 H       -13.0938781643        7.7261976696       -0.1305126301
 H       -11.5792564627        8.4421561148       -0.4058766406
 H       -12.3901105528        6.8187916212        2.1889442330
 H       -11.6683445396        8.3096255388        2.0840926235
 H       -10.5757901647        4.5855682722        5.6402611549
 H       -11.4782038032        3.3024450958        4.8997929494
 H       -12.2567448244        4.7774271971        5.4492415747
 H        -8.0218360541        5.6599851508        2.7175091997
 H        -8.4023199867        5.3033895486        4.4741549701
 H        -8.0201081422        6.7949720629        3.9535892241
 H       -10.2807455657        6.8198885888        5.3655412020
 H       -11.6920662469        7.1354293450        4.5901554017
 H       -10.2651329831        8.1380519602        4.1488648788
 H       -13.2313497477        6.2496320381       -2.9752768329
 H       -12.0577109090        7.5618834225       -3.8848261636
 H       -12.8267756651        8.0381894506       -2.4223609486
 H        -9.7340563624        5.1383845196       -2.9290932292
 H       -11.2085095931        5.3461096111       -4.0331386443
 H       -11.2722302057        4.4830361420       -2.4721856045
 H        -3.0925736633        7.2585141145       -1.6992777756
 H        -4.3299442997        6.5270749785       -0.5745101634
 H        -4.0430535745        8.1608276750       -0.4511857319
 H        -5.3401667656        9.8514829887       -3.1911677751
 H        -3.5560558652        9.4849145366       -2.5992816922
 H        -4.7059531750        9.9194028504       -1.4501674241
 H        -3.6696262877        3.2491972379        0.2227715006
 H        -4.7282969427        2.8952103383        1.3302952750
 H        -5.0545878349        4.3811990391        0.6443675561
 H        -5.4261286075        0.6893670993        0.0699368166
 H        -4.2240896866        1.1370426695       -1.1466514219
 H        -5.8201532329        0.7736914627       -1.6485999535
 H        -9.7150086377       -1.0766684812        3.8152842212
 H        -8.7644814577        0.3962605064        3.5427762954
 H        -8.0404446288       -1.1390651669        3.2828941499
 H        -8.9664550389       -1.9341045755       -0.0195937874
 H        -8.4994462089       -2.7262393454        1.5309851087
 H        -7.3868897262       -1.5418988794        1.0723396779
 H       -16.7932789889       -3.0596877515        0.0564479789
 H       -15.4232635393       -4.1677041186        0.3371470396
 H       -15.2401139632       -2.5721901303       -0.4805819000
 H       -16.5470602599       -0.0606958326        1.8000172216
 H       -17.3570514488       -1.3042282663        0.9673254679
 H       -15.9319140905       -0.4991515620        0.1396962268
 Na       -9.3505644900        3.8941770338        0.8311672028
