117

 C       -16.0701018937       -4.0744608601        3.5996074293
 C       -16.5886765747       -2.8013164322        2.9324223264
 O       -17.5723550495       -2.3109902168        3.2363189928
 C       -15.7924274768       -2.0840332479        1.6956397946
 C       -14.2759891314       -1.7292651376        2.2021292568
 O       -13.8196934125       -2.2771525344        3.2490671274
 C       -13.2598463526       -0.7929307649        1.5230465640
 C       -11.8874045173       -0.8576215644        2.1589220906
 C       -10.7762276908       -0.6747693622        1.1684329049
 O       -10.9801617216       -0.7101545294       -0.0401932693
 C        -9.1036190538       -0.6120997108        1.5203544657
 C        -8.6256497472        0.7185408187        0.8556257783
 O        -8.7750270743        1.7132141122        1.5348581674
 C        -8.3084574968        0.6932717216       -0.5810993824
 C        -8.1050247315        2.0501297211       -1.1708911793
 C        -7.2073506990        3.0008989320       -0.5360825383
 O        -7.5282802356        4.0855495640       -0.1429323257
 C        -5.5278359633        2.7236241768       -0.7941430014
 C        -5.1541528974        3.2928420849       -2.1323477008
 O        -4.7097271924        2.6329504699       -3.0339445609
 C        -5.5760039607        4.6767138377       -2.4784336223
 C        -4.7505792593        5.3891291643       -3.5470899878
 C        -4.5540971684        6.8798333730       -3.5600313786
 O        -4.1477539782        7.3772098997       -4.5833571256
 C        -4.8867285817        7.9283491139       -2.2394259376
 C        -6.4980888031        7.5792585510       -1.8987197166
 O        -6.8466654033        6.7975351452       -1.0611018112
 C        -7.5681658156        8.2917715297       -2.7126946115
 C        -8.8003329188        7.4767213507       -2.9874182120
 C       -10.1552433694        7.8772628952       -2.4618386675
 O       -10.5069924011        8.9506261199       -2.0501976644
 C       -11.2767309458        6.6118649800       -2.4216927242
 C       -11.5700882758        6.2597815060       -0.9114172882
 O       -11.4841149828        5.1546441695       -0.4529733075
 C       -11.9300282518        7.4170462028       -0.1242923091
 C       -11.5628455753        7.3597052188        1.4307449320
 C       -10.1814611904        6.7997538306        1.8032525602
 O        -9.2306142185        6.6878043168        1.0693716425
 C       -10.1836705532        6.2433956943        3.3230445946
 C       -10.8399464740        4.7356791857        3.6023893508
 O       -10.9626198936        3.8700979216        2.6855547047
 C       -11.2480934886        4.5290287918        5.0360904218
 C        -8.6575211210        5.9561007602        3.5424016181
 C       -10.6978947363        7.2696274238        4.4322532840
 C       -12.5425513324        7.1171823844       -3.1429600244
 C       -10.6393504050        5.2526554079       -3.0476280217
 C        -3.9111584406        7.3094861892       -1.1857884507
 C        -4.8228216708        9.4723733007       -2.4099830157
 C        -4.7297244434        3.6373318226        0.2398074853
 C        -5.0807582374        1.2527665594       -0.6303906119
 C        -8.9746536652       -0.4962953444        3.0109092779
 C        -8.4110653941       -1.9267752034        1.0759225729
 C       -15.7228393243       -3.1284762388        0.6018169147
 C       -16.3742496145       -0.6407303898        1.3926190836
 H       -16.6274822517       -4.9989044664        3.3896322429
 H       -16.2491247651       -3.9658471943        4.7110924797
 H       -14.9969258509       -4.2583630810        3.3932918277
 H       -13.6625540189        0.2319555897        1.5056451231
 H       -13.1924405812       -1.1080437009        0.4084193697
 H       -11.9048518697       -1.9037277234        2.5995543852
 H       -11.6880576170       -0.1935754692        2.9426484139
 H        -9.2132034323        0.1318496481       -0.9856085894
 H        -7.4287296555        0.0300307229       -0.7108310477
 H        -9.1063842679        2.6216483940       -1.2325932991
 H        -7.8899409418        2.1124880338       -2.1971165095
 H        -5.6383512197        5.2312053925       -1.6026782764
 H        -6.5630752997        4.7010024433       -2.9775004216
 H        -5.1524078845        5.0576226973       -4.4937490322
 H        -3.7444887326        4.9498512235       -3.4410274512
 H        -7.0839150338        8.4223297163       -3.7301919645
 H        -7.9136423171        9.3764825652       -2.2778555641
 H        -8.5533281772        6.4880138929       -2.6175796112
 H        -8.7518487088        7.4160362533       -4.0414393236
 H       -12.9669073133        7.7825268463       -0.2629900907
 H       -11.4111041720        8.3632020863       -0.4818765885
 H       -12.2424253514        6.6213816083        2.0327046659
 H       -11.8895516355        8.3561527222        1.8718517791
 H       -10.3561439620        4.6567460569        5.7879180957
 H       -11.6937062543        3.5913433427        5.2567756698
 H       -11.9937067854        5.2770620860        5.3898457752
 H        -7.9563107429        5.9963891068        2.7312825177
 H        -8.5633727984        5.0320675261        4.1186388748
 H        -8.2020485776        6.6112020748        4.2359749830
 H        -9.9794913729        7.3770095066        5.2638550936
 H       -11.5568607222        7.0302570766        5.0556264632
 H       -10.9350695174        8.2911480786        3.9454087382
 H       -13.2720525452        6.3061837180       -3.0633744385
 H       -12.2555782371        7.4019887905       -4.0469952642
 H       -12.8101381761        8.0382954628       -2.6420229027
 H        -9.6206331184        5.0835725657       -2.6557178364
 H       -10.6708075331        5.3211606118       -4.1190314166
 H       -11.2388143257        4.3697799724       -2.6864378681
 H        -2.9909145390        7.2552610653       -1.7334895116
 H        -4.2501001735        6.2886960376       -0.9165041538
 H        -3.9072211342        7.8489665315       -0.2939713767
 H        -5.3077897042        9.8962200515       -3.2664101250
 H        -3.8442001452        9.7966417455       -2.2944635579
 H        -5.2680773856        9.8084194369       -1.4385403705
 H        -3.7066616092        3.8732988601       -0.0996359963
 H        -4.4804600614        3.2505905488        1.1712918995
 H        -5.4092936038        4.4677233987        0.3977249066
 H        -5.1601801122        0.9414357668        0.4730337016
 H        -4.0153007179        1.3499841537       -1.0145477349
 H        -5.5877436683        0.5569207681       -1.2995347600
 H        -9.2292065750       -1.5214076366        3.4849921753
 H        -9.6489651236        0.2720716177        3.4132840016
 H        -7.9792261476       -0.2641897812        3.2416964623
 H        -8.8246066960       -2.3467001016        0.1585725641
 H        -8.4459467045       -2.7529760796        1.8495207688
 H        -7.3515664028       -1.7189091135        1.1118008311
 H       -16.7199808256       -3.3616015732        0.1259843671
 H       -15.3015587448       -4.1443396603        0.9308920384
 H       -15.0417830232       -2.7471612593       -0.2215683269
 H       -15.6924027754        0.1109680223        1.7877871107
 H       -17.2093132589       -0.5287053678        2.0567261874
 H       -16.5819114253       -0.4072434132        0.4230288433
 Na       -9.5070142248        3.8618574037        0.7216594878
