117

 C       -16.3982683810       -3.8293183142        4.0198734710
 C       -16.6353733612       -2.4733517964        3.4939495025
 O       -17.6154074607       -1.8386043792        3.8839137263
 C       -15.7743680723       -1.8354370000        2.1834810691
 C       -14.2407655017       -1.8619463204        2.4678554755
 O       -13.8034042590       -2.3747645936        3.4838469621
 C       -13.2756156213       -1.1120364784        1.4802916235
 C       -11.9407989593       -0.6450349666        2.0543004752
 C       -10.7597248618       -1.0124853931        1.0868570881
 O       -10.9494795667       -1.3911786481       -0.0571136454
 C        -9.2475026170       -0.6664068994        1.5380201026
 C        -8.7515172563        0.7625540004        1.0007993318
 O        -8.7913732252        1.7209216568        1.7615662647
 C        -8.3046296958        0.7199665885       -0.4879607288
 C        -7.9580618299        2.0828487442       -1.1935512987
 C        -7.1531465644        3.0519399263       -0.3692032972
 O        -7.6571641024        3.7038889322        0.5190697424
 C        -5.6431500976        2.9226835124       -0.5443040132
 C        -5.4365869078        3.0683967978       -2.1338522604
 O        -5.0958116603        2.0016885582       -2.6608351577
 C        -5.5985272789        4.4473767502       -2.8856471183
 C        -4.3150814602        5.1993903107       -3.2965936928
 C        -4.6372550853        6.6407790156       -3.7191467985
 O        -4.6811237117        7.2738916975       -4.7920710433
 C        -4.7759923055        7.6736949502       -2.4674188862
 C        -6.1896224899        7.5511375768       -1.9607705283
 O        -6.4089507117        6.9811565123       -0.9273705743
 C        -7.3928423479        8.2561096495       -2.6756877296
 C        -8.4528411453        7.2779955570       -3.2669929743
 C        -9.8592864927        7.6353285445       -2.9351010933
 O       -10.1895980261        8.7527265068       -2.6689092954
 C       -10.9986906905        6.6209675390       -2.9218833314
 C       -11.2977699540        6.2525849885       -1.3485975797
 O       -11.2243383876        5.0870748219       -1.0944867831
 C       -11.6836342005        7.3271833767       -0.4126561743
 C       -11.8485819463        6.8801926531        1.0139196731
 C       -10.4533937252        6.6990300463        1.7037020485
 O        -9.4264055369        6.4463932173        1.0269173737
 C       -10.1604864475        6.4388977941        3.2375013995
 C       -11.0305127087        5.1297057048        3.5902816418
 O       -11.3485170446        4.3235146659        2.6377327463
 C       -11.1585331930        4.6246035598        4.9813443204
 C        -8.6545620317        6.1933853977        3.3381302008
 C       -10.5789394720        7.5201756745        4.2114164922
 C       -12.2600414589        7.3811475225       -3.4335760857
 C       -10.8259201653        5.2583914587       -3.6325331253
 C        -3.7176806465        7.4104174471       -1.2658663368
 C        -4.5318432775        9.2749025517       -2.7907712817
 C        -5.0322932122        3.9345927542        0.3590706354
 C        -5.1586216777        1.5874896621       -0.0859237769
 C        -9.1969830007       -0.5186280628        3.1814999890
 C        -8.3211179154       -1.7905227114        0.9954353508
 C       -15.9316813189       -2.8347273063        0.9474243464
 C       -16.1491957982       -0.3382889542        2.1390667637
 H       -16.2650537294       -4.5872073644        3.2332921666
 H       -17.1676160820       -4.0663350077        4.6469986976
 H       -15.3925885427       -3.8949345249        4.4478188327
 H       -13.6454397106       -0.2962715684        0.8610670523
 H       -13.1564156395       -1.8607209539        0.6596614699
 H       -11.6759223851       -1.1579436490        3.0102915908
 H       -11.8456858226        0.3724410082        2.1287320880
 H        -8.9679276546        0.2091782948       -1.1756795737
 H        -7.3819320955        0.1016070470       -0.3679393424
 H        -8.9605110853        2.5079248030       -1.5310195338
 H        -7.5282424518        1.9532624421       -2.1519196848
 H        -6.2160251106        5.1381525846       -2.4235711395
 H        -6.0147456061        4.2733272387       -3.9351305996
 H        -3.8415770764        4.7902762617       -4.1223094864
 H        -3.6339690086        5.1790041165       -2.4661788152
 H        -7.2667979798        9.1259818842       -3.4601428940
 H        -8.0549111035        8.7190114221       -1.8443517267
 H        -8.3414845425        6.3357990666       -2.6646633624
 H        -8.2965084887        6.9673234167       -4.3025148009
 H       -12.5561452773        7.8470724494       -0.8165404647
 H       -11.0417987228        8.2047269160       -0.5913554261
 H       -12.4292227176        5.9002958863        0.9379491525
 H       -12.4389179224        7.4775358950        1.6869152503
 H       -10.6585177010        5.3455159621        5.6384589928
 H       -10.7186975552        3.6436432730        5.1683997720
 H       -12.1544616630        4.4918089635        5.3898402159
 H        -8.0381367257        6.7105906414        2.6427936548
 H        -8.3983596199        5.1517951746        2.9769563857
 H        -8.1984209034        6.3737004397        4.3001980821
 H       -11.3197229522        7.2432829611        4.9313960958
 H       -10.8261868882        8.4631072210        3.8136557259
 H        -9.6975827682        7.8953367918        4.8725298293
 H       -13.1216112118        6.7844953993       -3.1811280817
 H       -12.1286647682        7.5532273904       -4.4952449954
 H       -12.3043768444        8.3072399866       -2.7595913277
 H       -10.0342753943        4.8162757884       -3.0158858996
 H       -10.4865092132        5.3965891012       -4.6498243684
 H       -11.7885136868        4.7475574362       -3.4977365369
 H        -2.7841313900        7.6236849719       -1.6348326977
 H        -3.8935379540        6.3516266052       -1.0469066089
 H        -3.9886348611        7.9741276964       -0.3886316975
 H        -5.4387860320        9.8122069472       -3.0788864937
 H        -3.8777145143        9.4213475598       -3.6032238695
 H        -4.3661499426        9.6684935841       -1.7400486895
 H        -3.9711767430        3.9258757571        0.5306718760
 H        -5.5869765033        3.9019512166        1.2687663431
 H        -5.3672387163        4.9024055052       -0.0616133811
 H        -5.5583697339        1.4700670872        0.8735444127
 H        -4.0868106594        1.5458511851       -0.1343829975
 H        -5.5122369784        0.8203910819       -0.6837401525
 H        -9.5643522373       -1.3954911817        3.6650655919
 H        -9.6575060141        0.3917399966        3.4738628794
 H        -8.1798266219       -0.5240193255        3.5908327843
 H        -8.1496983538       -1.6281310314       -0.0854739964
 H        -8.8056098242       -2.8364748847        1.1651446785
 H        -7.2704607592       -1.7285081705        1.3869900929
 H       -16.9106069674       -3.1205598897        0.6783498576
 H       -15.4420138389       -3.7188331322        1.3080726058
 H       -15.3376831070       -2.5307384363        0.0902890525
 H       -17.0304099045        0.0084354810        1.6071318184
 H       -15.2729800916        0.2316655221        1.6703225702
 H       -16.2206349289       -0.0003606107        3.1354467582
 Na       -9.7603405902        4.0572916254        0.8546414516
