117

 C       -12.4854351087       -0.2799046877        6.7528057248
 C       -12.6566621627       -0.7698840166        5.2392630618
 O       -12.8142231937        0.0446341151        4.3380660706
 C       -12.6176979921       -2.2708995974        4.9056541423
 C       -11.6292232524       -2.3946376950        3.7051618823
 O       -11.9858980951       -2.2197397132        2.5562184839
 C       -10.1023676222       -2.6884481870        3.9332664444
 C        -9.2240415064       -1.4898801746        3.5623810482
 C        -7.7519080295       -1.8817380006        3.2982325392
 O        -7.3119165243       -2.9125952054        3.6708772156
 C        -6.7567661455       -0.8702959814        2.5515432503
 C        -7.0434660985        0.7178163509        2.8551639418
 O        -7.2920970270        1.0118606599        3.9932697716
 C        -6.9526069893        1.7096887066        1.7346961673
 C        -6.6522851400        3.1385060228        2.2376007805
 C        -7.7313753796        4.1110186611        1.6398417559
 O        -7.6556041468        4.5225294565        0.4676990367
 C        -9.0029576157        4.5301063027        2.4621691097
 C       -10.2635988886        4.5190727517        1.5528199832
 O       -10.6335076875        5.4926916195        0.9494999174
 C       -11.3286890374        3.2775720947        1.4977329811
 C       -11.7995813046        2.9398221668        0.0653896332
 C       -10.6729596269        2.8108178426       -0.9156706400
 O        -9.5429377582        3.0044246983       -0.5005991276
 C       -10.8093248527        2.4915876316       -2.5048202858
 C       -10.0790619344        3.6040991294       -3.3570043149
 O        -9.7499724422        4.6193239960       -2.7791915185
 C        -9.9383241716        3.4279207647       -4.9081680327
 C        -9.7082325063        4.6991787026       -5.6425519450
 C       -10.8297306088        5.7319140958       -5.4719034118
 O       -11.8932569517        5.5652346511       -4.8569115811
 C       -10.4369422890        7.1905761382       -5.9763662868
 C       -10.4295142532        8.2079289496       -4.6903689551
 O        -9.4397287274        8.8675384072       -4.4016749837
 C       -11.7318061954        8.5528122942       -4.0365540386
 C       -11.5233765492        9.5659807798       -2.9196396764
 C       -10.3720777851        9.0549642828       -2.0363556606
 O       -10.5136142845        7.9194026120       -1.6383367111
 C        -9.0836852794        9.9300684895       -1.5815941194
 C        -7.7546751649        9.0975351482       -1.9675844825
 O        -7.5064790995        8.0025207632       -1.4563704113
 C        -6.7361512361        9.6830257172       -2.8734783814
 C        -9.2173820380       11.3987386264       -2.0022763064
 C        -9.1959362609        9.7027223510       -0.0700225697
 C        -9.0649924581        7.2585721714       -6.6364896515
 C       -11.5441241939        7.7293109880       -6.8507501618
 C       -10.1597592330        1.1129866994       -2.6464149002
 C       -12.2672416283        2.3826152204       -3.0265716912
 C        -9.1977940301        3.5835349941        3.6523841989
 C        -8.8328055545        6.0673498375        2.9359977282
 C        -5.2569176723       -0.9749292715        2.9691867814
 C        -6.9043416229       -1.2492674584        0.9829307698
 C       -12.2240645993       -3.2427589864        6.1363695622
 C       -14.1158886570       -2.6950568817        4.6409302978
 H       -12.5951175383       -1.0719756695        7.4814477170
 H       -13.1980089427        0.4522376838        6.9929262173
 H       -11.5075494570        0.0936395527        6.9352186885
 H        -9.8855634673       -3.4265486578        3.1628172415
 H        -9.9613417055       -3.1036059249        4.8506649315
 H        -9.1252419265       -0.7041016026        4.3517708185
 H        -9.6320657179       -0.8389653393        2.7714860542
 H        -8.0027187855        1.6530966104        1.3533492518
 H        -6.1969994265        1.4358506722        0.9824892999
 H        -5.5734750608        3.5159447268        2.0259634153
 H        -6.8136438437        3.0702206565        3.3311334392
 H       -12.2319336755        3.6506650039        2.0051800361
 H       -11.1358765986        2.3529436358        2.0650295365
 H       -12.3771400879        3.7899414686       -0.3611808202
 H       -12.5186041091        2.1169367047        0.1676266749
 H       -10.8351152340        2.9827621521       -5.3024219614
 H        -9.2198029607        2.7143910921       -5.1835170457
 H        -9.6383070866        4.4025923047       -6.6740219061
 H        -8.7726062272        5.1047031379       -5.3287800112
 H       -12.1799055292        7.7204160150       -3.6302933213
 H       -12.3902516810        8.8772381550       -4.8180551469
 H       -12.4586337067        9.6893890662       -2.3594022776
 H       -11.2773997236       10.5156212875       -3.3334104471
 H        -7.0464646144       10.4921110930       -3.6308938511
 H        -6.2942906201        8.9077202283       -3.5003327237
 H        -5.9325653452       10.1021104292       -2.2109253465
 H       -10.1836754414       11.6899946105       -1.6885777040
 H        -9.2152756415       11.5828658309       -3.0307857078
 H        -8.5439891285       12.0924410293       -1.3975712286
 H        -9.7146193768        8.8436307610        0.3198445248
 H        -9.6768453379       10.5444740766        0.4687494650
 H        -8.1876249963        9.6563073468        0.4496944106
 H        -9.0372869716        6.6404008575       -7.5079779393
 H        -8.3351968189        6.9605622114       -5.7825085647
 H        -8.8201925393        8.3331798990       -6.8688639286
 H       -11.5896148634        7.2489273807       -7.8642306318
 H       -11.4611539401        8.8115759689       -7.0460996479
 H       -12.4554562961        7.5710666047       -6.3117232594
 H       -10.2007267122        0.7804900947       -3.7106962400
 H       -10.6159042297        0.4066761324       -1.9549167779
 H        -9.0576007494        1.2131784979       -2.4313795980
 H       -13.0745072254        2.9144513185       -2.4975256983
 H       -12.6017159735        1.3087019759       -3.0874574145
 H       -12.4315717336        2.7975764366       -4.1050249301
 H        -8.9414149217        2.5683969512        3.5318636214
 H       -10.2274912294        3.7303652590        4.1459166993
 H        -8.5036554438        3.9048861621        4.4128560229
 H        -9.0072246984        6.7563940507        2.1038622246
 H        -7.8256429680        6.1732985146        3.2330553755
 H        -9.3583254756        6.3282061729        3.8312667869
 H        -4.8310447190       -1.9159494162        2.7449672309
 H        -5.2390075977       -0.9661072262        4.0629272872
 H        -4.7262652592       -0.1200885110        2.5145489282
 H        -7.6825339020       -0.6439582307        0.5583032367
 H        -7.0268395067       -2.2767467324        0.8662169448
 H        -6.0173561781       -0.9439262961        0.4736792871
 H       -11.2238183342       -3.0659755081        6.5493218579
 H       -12.0825574294       -4.1859827102        5.5815977880
 H       -13.0224189027       -3.3030932630        6.8820984265
 H       -14.5998389730       -2.0954479090        3.8799782921
 H       -14.6005969472       -2.4767822454        5.6231387769
 H       -14.0863977446       -3.7358304633        4.3640272664
 Na       -8.9849280159        6.1134599532       -0.7744114794
