117

 C       -16.2998458566       -3.7012171108        4.1178035729
 C       -16.6246335819       -2.2368011571        3.7598389825
 O       -17.2516167025       -1.5755524752        4.5224191579
 C       -15.8807401043       -1.6244209088        2.4711875911
 C       -14.2674035772       -1.7757855423        2.6823090437
 O       -13.8217361197       -2.0806609782        3.7948939758
 C       -13.2517860935       -1.6371072619        1.5205250363
 C       -11.9684319187       -0.9594651648        2.0187602628
 C       -10.7392879443       -1.1922412029        1.2480933386
 O       -10.8242123801       -1.5372135897        0.0669819056
 C        -9.3150954890       -0.7741544961        1.7562218574
 C        -9.1403635520        0.6579907124        1.0418037833
 O        -9.9246491884        1.4861310085        1.3589759245
 C        -8.4243102826        0.7257437233       -0.3080269259
 C        -8.1795444040        2.1160404139       -0.9093967167
 C        -7.1347138193        3.1373578666       -0.1752127713
 O        -7.6038972358        4.1726663859        0.3720481324
 C        -5.6665284634        3.0021821535       -0.5035925130
 C        -5.4432098084        2.9681206624       -2.0827884072
 O        -5.1040999750        1.9324880969       -2.6786433356
 C        -5.6668672331        4.3408077517       -2.7751481382
 C        -4.2713076290        5.1049425358       -2.9360200262
 C        -4.5300194010        6.4949944320       -3.4174684338
 O        -5.1684738041        6.6707364991       -4.4923048176
 C        -4.5054400909        7.7522531393       -2.5597205027
 C        -6.0072509407        7.6582723186       -1.9741330562
 O        -6.1440216194        7.1637460555       -0.8888491770
 C        -7.1666924812        7.9139307384       -2.9345429026
 C        -8.3460847089        6.8885991636       -2.7968686057
 C        -9.7086330695        7.5743344135       -3.0117859082
 O        -9.9508956127        8.7251463073       -3.0933635514
 C       -11.0638746805        6.5834131365       -3.0817500637
 C       -11.1887090053        6.1202588995       -1.6060150582
 O       -10.8450902512        4.9905077185       -1.2875446081
 C       -11.7168911411        7.1748997266       -0.6841407658
 C       -11.6964439460        6.8296967602        0.7888120414
 C       -10.3025887714        6.5091172759        1.3906333716
 O        -9.3169262817        6.4090312711        0.7160165242
 C       -10.2933472376        6.4775985952        3.0513313068
 C       -10.9110196139        5.0864572168        3.5831079839
 O       -11.1822228433        4.1819521875        2.7586350746
 C       -11.2889534156        4.9911631260        5.0072457918
 C        -8.8862243020        6.3434650896        3.5776144418
 C       -10.8131395415        7.8408402355        3.5550392203
 C       -12.2341256962        7.4320853856       -3.3939880474
 C       -10.7252672684        5.5335993638       -4.2288997873
 C        -3.5102728300        7.6263794199       -1.4000412823
 C        -4.2042058703        8.9802560419       -3.3781329272
 C        -4.9553337945        4.2013357392       -0.0487883137
 C        -4.9953959560        1.8277194960        0.0550886258
 C        -9.1548843057       -0.7147504632        3.3161002662
 C        -8.3791197584       -1.8213442996        1.1494388182
 C       -16.3714866835       -2.4217539061        1.2544574881
 C       -16.0280508208       -0.0644264419        2.1963874473
 H       -15.6018860240       -4.1857083899        3.4456347280
 H       -17.2284078804       -4.2099330403        4.2350538744
 H       -15.6400716674       -3.7016992405        5.0342582829
 H       -13.7046951614       -1.2425948832        0.6537041448
 H       -13.0761371994       -2.6974813917        1.2424691027
 H       -11.7081884464       -1.2384425021        3.0682664570
 H       -11.9088433362        0.1396848591        1.9014751609
 H        -9.1033212999        0.2247195249       -1.0454372265
 H        -7.5142090490        0.2316936381       -0.3189515776
 H        -9.1584364824        2.6188163691       -1.2148915150
 H        -7.7199854343        1.8009419657       -1.8072534758
 H        -6.4435567103        5.0035521426       -2.3990615308
 H        -5.8293459459        4.1907214917       -3.9301687625
 H        -3.7793023024        4.4156853651       -3.6025959191
 H        -3.6472234623        5.3029969554       -2.0749815137
 H        -6.9359908911        8.0130071929       -3.9379864597
 H        -7.4815297493        8.8337794937       -2.6891708808
 H        -8.2943546317        6.5893373364       -1.7493698554
 H        -8.4025442271        5.9176753410       -3.3774339906
 H       -12.7720795100        7.2494997355       -0.9506611997
 H       -11.4915410817        8.2162310474       -0.8696658949
 H       -12.2674584356        6.0011030612        1.0593616372
 H       -12.1286593176        7.6401389938        1.3106729799
 H       -10.8962881094        5.8560270140        5.5970154641
 H       -10.9355355026        4.1213349171        5.4597876585
 H       -12.3295624431        4.8077335848        5.1779980634
 H        -8.5714632847        7.0810144906        4.3579665314
 H        -8.0971722344        6.5569039805        2.8500582662
 H        -8.8092688901        5.3863749903        4.0843020361
 H       -11.6281625417        8.2337563705        3.0467749248
 H       -10.0290672440        8.5489066244        3.6340835534
 H       -11.3606086007        7.7639503349        4.5385871782
 H       -13.1686144530        6.7782148258       -3.4251766525
 H       -12.1827599031        7.7384932186       -4.4376596044
 H       -12.4048193579        8.2874542126       -2.5870132659
 H        -9.7171261047        5.7208101261       -4.5547777579
 H       -11.3274255055        5.7061151423       -5.0716139128
 H       -10.9056192138        4.5681786986       -3.7529546533
 H        -2.5820869065        7.0786256694       -1.7142922088
 H        -4.0968483149        7.0928162086       -0.5683186811
 H        -3.2379932094        8.6361832433       -1.2268401424
 H        -5.0796537251        9.4030365259       -3.9299179731
 H        -3.4314741741        8.6886989493       -4.0314459127
 H        -3.8959894150        9.7252280846       -2.5589718247
 H        -4.0276532226        4.2401898755       -0.6735533250
 H        -4.8053967118        4.3004212874        1.0081662765
 H        -5.4244182976        5.1215944956       -0.4431271300
 H        -5.4856453295        1.5473065671        1.0122907604
 H        -3.9749104226        2.2407357037        0.3270070787
 H        -4.8238492616        1.0039843539       -0.6022423835
 H       -10.0003925465       -1.2737565139        3.8358945724
 H        -9.1790663319        0.3547357945        3.5716560573
 H        -8.2794359545       -1.1732363003        3.7415855553
 H        -8.5702943747       -2.1913110006        0.2052931785
 H        -8.3320759208       -2.6423904974        1.8570569925
 H        -7.4769941400       -1.3534879403        1.0423752848
 H       -17.4490662059       -2.2407599242        1.1401249206
 H       -16.1972628301       -3.5256867184        1.2894772368
 H       -15.8652068512       -2.0208666305        0.3709216829
 H       -16.7803119090        0.4682114948        2.8414886686
 H       -16.4228066702        0.3022804364        1.1674252113
 H       -15.0715745755        0.3561026717        2.2463938206
 Na      -10.0267143875        3.9651410154        0.8908635534
