117

 C       -16.2567133663       -3.5902271379        4.1345156780
 C       -16.4524066329       -2.1184897428        3.8579924628
 O       -17.1413753161       -1.4229613366        4.6778722355
 C       -15.8359869674       -1.4897056630        2.4771247181
 C       -14.4063761575       -1.8050565534        2.7387761183
 O       -14.0219926367       -1.9913845738        3.8552661311
 C       -13.2676917173       -1.7449436700        1.5687771342
 C       -12.0527691657       -1.0309511372        2.2121294778
 C       -10.7940612758       -1.2752780121        1.1508816834
 O       -10.8636578051       -1.6469779472        0.0046924482
 C        -9.3296941841       -0.8574669273        1.7541260872
 C        -9.4123383993        0.5859413213        1.0028291971
 O       -10.2159969133        1.4059945524        1.4193961408
 C        -8.4081950120        0.7174129166       -0.2313801059
 C        -8.1287822740        2.1313894455       -0.8836032244
 C        -7.1742856885        3.1821431221       -0.2903325577
 O        -7.6785261019        4.0675355835        0.3913823531
 C        -5.5932553088        3.0797798960       -0.5055788284
 C        -5.4432111848        3.0023144079       -2.0982251266
 O        -5.1757424087        1.9675709063       -2.6184628766
 C        -5.5457622806        4.2466953049       -2.8452727417
 C        -4.2624786639        5.0031704307       -3.0013250518
 C        -4.6023602320        6.4007988877       -3.5506960879
 O        -5.2569464523        6.5213822339       -4.5852789209
 C        -4.4237493527        7.7093482608       -2.6173191169
 C        -5.9815905355        7.5841977474       -2.0638432137
 O        -6.1069505005        7.3343074490       -0.8986609180
 C        -7.2332489129        7.8775266071       -2.8359761240
 C        -8.3670988673        6.9217561492       -2.4396268966
 C        -9.6078746235        7.5166137953       -3.0420803995
 O        -9.7645218551        8.7108629355       -3.2199791888
 C       -10.9504647393        6.6141299803       -3.2125108159
 C       -11.0741668492        6.0727478749       -1.6491242010
 O       -10.5769709055        4.9957624771       -1.3213728087
 C       -11.7824033027        7.0389731471       -0.7509005736
 C       -11.6849067475        6.6570449802        0.7543991757
 C       -10.2898551238        6.5655703422        1.4328257507
 O        -9.1930095919        6.3558998164        0.8363445609
 C       -10.3762443506        6.5964471987        2.9829571964
 C       -11.0696054557        5.2612480856        3.4785409943
 O       -11.0269835829        4.1483931730        2.8320397875
 C       -11.3791852125        5.1640760397        4.9722728952
 C        -8.8823367329        6.3832071772        3.5258506932
 C       -10.8948409701        7.8909962773        3.4684150833
 C       -12.1250794384        7.5530945191       -3.5171629964
 C       -10.7037608473        5.4413432117       -4.1764101389
 C        -3.5397714447        7.7796241966       -1.2059291002
 C        -4.2210440162        8.7586060271       -3.7204991259
 C        -4.8646344253        4.4143268685        0.1117051779
 C        -4.9977175772        1.6776748041        0.1305325768
 C        -9.3163255643       -0.5780151371        3.2185369343
 C        -8.1655118597       -1.8340275996        1.2245407930
 C       -16.3282696123       -2.4278325636        1.3155462623
 C       -15.9504534331        0.0483260407        2.4607565109
 H       -15.4558554725       -3.9697973426        3.5245644709
 H       -17.1422675782       -4.1051263353        4.1601158368
 H       -15.7275742467       -3.6347317115        5.0737002624
 H       -13.6160044094       -1.2862083913        0.6209454445
 H       -13.0463534384       -2.7739688031        1.3264167854
 H       -11.7789815064       -1.3796032285        3.2165857376
 H       -12.1235521134        0.0002740764        2.2205248963
 H        -8.7444822070        0.0943766595       -1.0104177309
 H        -7.3692633482        0.3797164867        0.1284039910
 H        -9.0627435850        2.6578880398       -0.9870612980
 H        -7.7579553353        1.8070587209       -1.8442419704
 H        -6.0485867131        4.9381795243       -2.1756328154
 H        -6.1515954787        4.2802129892       -3.7990906403
 H        -3.6351816014        4.4367505127       -3.5627686998
 H        -3.7589382022        5.1675509146       -2.0862855937
 H        -7.2445172782        7.7736299779       -3.9771531365
 H        -7.4003393770        8.9791597137       -2.7068245062
 H        -8.4119346604        6.8476949219       -1.3042269225
 H        -8.3563718187        5.8918894362       -2.7955123415
 H       -12.8312210550        7.1320913318       -1.0373703906
 H       -11.4901560996        8.0849595387       -0.9055847187
 H       -12.1095060408        5.6872472668        1.0008560299
 H       -12.1884330727        7.3768835346        1.2923912244
 H       -10.8739889877        5.9150484660        5.4187946265
 H       -10.9852139457        4.2400642006        5.4147415346
 H       -12.3743299357        5.0787932542        5.3190686004
 H        -8.7244229409        6.7558396397        4.4932569834
 H        -8.3048266778        7.1630505673        2.9667575860
 H        -8.4773957960        5.3302900782        3.5516388383
 H       -11.8173624228        8.1947795571        3.0166129374
 H       -10.1817781177        8.6660972861        3.3777078059
 H       -11.3006815144        7.8574191938        4.4783093225
 H       -13.1312620183        7.0806156220       -3.3574894658
 H       -12.1658913548        7.8705272037       -4.6797240931
 H       -11.9652041983        8.3744491369       -2.8381692209
 H        -9.8497656147        5.6869170823       -4.7768206665
 H       -11.5404343032        5.4166266790       -4.8819167852
 H       -10.6700389201        4.5535546718       -3.5736694126
 H        -2.6068457455        7.3517245735       -1.4273779750
 H        -4.1102510703        7.2890872851       -0.3892614315
 H        -3.3556397481        8.8698975186       -1.1357260164
 H        -4.9503494924        8.5725324815       -4.5592796307
 H        -3.1305504827        8.5670434445       -4.0470066031
 H        -4.4207226535        9.7589498011       -3.2509462051
 H        -3.8456738725        4.4225845851       -0.1513214378
 H        -5.0228844104        4.4675411980        1.2163953044
 H        -5.1823761496        5.3893244803       -0.3618813742
 H        -5.4613134181        1.5150998210        1.0349757127
 H        -3.9864270101        1.8211781543        0.3538186768
 H        -5.0770977670        0.8435478664       -0.5411837754
 H        -9.7596630690       -1.3667360526        3.6829515794
 H        -9.8999281764        0.3139639213        3.3693669792
 H        -8.3102883475       -0.4710696808        3.7402040808
 H        -8.1028074053       -1.8884195629        0.1580309638
 H        -8.4271603522       -2.8209308415        1.5766915946
 H        -7.1504576290       -1.5236890488        1.5204006490
 H       -17.3659774755       -2.4615204679        1.2743809842
 H       -16.0435669644       -3.3693028688        1.6643021162
 H       -15.8843216414       -2.3381740251        0.3378023371
 H       -16.6375192716        0.4212310976        3.2080379608
 H       -16.5616722784        0.3650755795        1.5699567934
 H       -14.9826001664        0.5837649756        2.3707633105
 Na      -10.1755973884        3.9282597003        0.6157578699
