117

 C       -16.4560809224       -3.4902870525        4.4297682919
 C       -16.5869880478       -1.9431157817        4.0395342766
 O       -16.8622021822       -1.2033109152        4.8839746367
 C       -15.8356178758       -1.4744804876        2.7076773948
 C       -14.2538969954       -1.7373733797        2.9621496073
 O       -13.6878310868       -1.8355355241        4.0654671872
 C       -13.3690482010       -1.8601337968        1.8043720390
 C       -12.0251504222       -1.4836352076        2.1992659532
 C       -10.9806925860       -1.4949194831        1.1201744452
 O       -10.9581692931       -2.0185693918        0.0134090919
 C        -9.5660784073       -0.6667184971        1.6732019845
 C        -9.3896816469        0.6599740029        0.8160071891
 O       -10.1715383296        1.6123623724        0.9260374111
 C        -8.1937499920        0.7198441138       -0.0549061009
 C        -8.0313332153        1.9515972445       -0.9856508813
 C        -7.3482737272        3.1242014863       -0.2468043560
 O        -7.8459287997        3.8670481919        0.6041742459
 C        -5.8202803348        2.9508462553       -0.2804929848
 C        -5.4348826202        2.9095784766       -1.8937621816
 O        -5.2842856752        1.7461476657       -2.3633442199
 C        -5.4705378880        4.2470279382       -2.7532346247
 C        -4.0243626471        4.9631379793       -3.0642850561
 C        -4.5396144823        6.2169334126       -3.6978821324
 O        -5.1483889408        6.2785818564       -4.7826928408
 C        -4.5026034972        7.6079056644       -2.7988083980
 C        -5.8425406843        7.6747440485       -2.0652152911
 O        -5.9246768757        7.6100437682       -0.8345036038
 C        -7.1203699105        7.8313910724       -2.8554906505
 C        -8.3182071005        7.2226730588       -2.1909705641
 C        -9.5628698455        7.6341557575       -3.1281177740
 O        -9.6708227221        8.6992213669       -3.6320475428
 C       -10.7814990942        6.6648858004       -3.2439832129
 C       -10.9252232578        6.0855569835       -1.7929785146
 O       -10.3916820700        4.9981717931       -1.5518739847
 C       -11.7305662777        6.8381692468       -0.6774444240
 C       -11.8075292874        6.1930155689        0.7320473121
 C       -10.3159443349        6.4430689413        1.4168856050
 O        -9.4042012092        6.4885577932        0.6851060179
 C       -10.2393976776        6.6741986497        3.0922462768
 C       -10.9898356858        5.4073422166        3.5134502546
 O       -10.9206531915        4.4419176576        2.8410562245
 C       -11.6930205957        5.4355853469        4.8465555201
 C        -8.7918632179        6.7365151372        3.4824251784
 C       -11.0669151582        7.8967667489        3.5401800365
 C       -11.9350933091        7.4503338969       -3.8595790152
 C       -10.5523903542        5.4035496971       -4.1672807564
 C        -3.2480519187        7.6740623344       -1.9166305753
 C        -4.4842498219        8.8907405673       -3.8553602988
 C        -5.1770833774        4.1394817390        0.4563328068
 C        -5.1630965012        1.6875110407        0.3310786182
 C        -9.5639115749       -0.3583866202        3.2805603650
 C        -8.3417379458       -1.6307665793        1.4031461475
 C       -16.3658796742       -2.0382558990        1.4394890830
 C       -16.1114531661        0.1495481155        2.5156761168
 H       -15.5331249257       -3.9093850738        4.0328385458
 H       -17.4179573781       -3.9898513311        4.1519299011
 H       -16.4143059999       -3.5693103593        5.5593751900
 H       -13.9366079976       -1.2120980844        1.1283394842
 H       -13.4908000128       -2.9248264203        1.4667016686
 H       -11.5674415194       -2.1537103841        2.9161367697
 H       -12.0116838693       -0.4608062702        2.7166891434
 H        -8.2195406390       -0.2949350331       -0.6205398190
 H        -7.3564453854        0.7917845309        0.5705707333
 H        -9.0913689589        2.3146544804       -1.2145984746
 H        -7.4478742330        1.6172117214       -1.8533131705
 H        -6.1101642986        5.0355874200       -2.3814848156
 H        -5.9160991558        3.9666624485       -3.7411765274
 H        -3.4291146011        4.2496278698       -3.7747451748
 H        -3.3499080732        5.0694844384       -2.1584178396
 H        -7.1873171272        7.4323647163       -3.8740720800
 H        -7.2547747517        8.9056696675       -3.0173046886
 H        -8.4215004939        7.6312501390       -1.2043065665
 H        -8.3412161062        6.1283951929       -1.9729906135
 H       -12.8135036683        6.9110176735       -0.9164996069
 H       -11.4500434148        7.9205466490       -0.6527416619
 H       -11.9870556081        5.0827547114        0.5328965088
 H       -12.6957881059        6.6793301980        1.3351386219
 H       -11.1240275340        6.1074400396        5.6199178400
 H       -11.8983148727        4.5171080629        5.3779836655
 H       -12.7244163246        5.8573313443        4.7535118958
 H        -8.4604178592        5.8204379938        4.0552532109
 H        -8.5767367394        7.5945779907        4.0756696322
 H        -8.1690158739        6.7068404742        2.6165086777
 H       -12.1360379033        7.7361963618        3.6573124066
 H       -10.9808435798        8.6892541889        2.7703480268
 H       -10.8337630041        8.3819367258        4.5276450195
 H       -12.8634092211        6.9727539237       -3.7599901040
 H       -11.7690341976        7.5177484799       -4.8824555049
 H       -11.9918292046        8.5332536874       -3.5767918275
 H       -10.6840572999        5.8171347763       -5.1688897752
 H       -11.3445523395        4.7112399707       -3.9631473136
 H        -9.5456055644        4.9787078588       -3.9440526945
 H        -2.4097291592        7.6990238903       -2.6347434586
 H        -3.2586267091        6.8365290209       -1.2455179504
 H        -3.2576996706        8.5762338036       -1.4234663556
 H        -4.7502628965        8.6072769020       -4.8458179634
 H        -3.4964747822        9.1712422695       -3.7403486884
 H        -5.0511436398        9.7463212672       -3.4772890284
 H        -4.0902884262        4.0483814252        0.7242110631
 H        -5.7113231813        4.2109403299        1.3436945513
 H        -5.2579091892        5.0116912021       -0.1239356966
 H        -5.1225573637        1.6525738749        1.4560305632
 H        -4.0668648546        1.7173157347        0.0647260610
 H        -5.5711346507        0.8157738258       -0.1251221808
 H        -8.9891190610       -1.1743673609        3.8613643437
 H       -10.5680766540       -0.2738733624        3.7255972803
 H        -9.0849049250        0.5339124311        3.4344564250
 H        -8.0219089787       -1.8899544040        0.3436175226
 H        -8.6841802138       -2.6163944841        1.8748380623
 H        -7.4205754398       -1.2702076547        1.9270136955
 H       -17.4442564691       -1.8638358248        1.5123830729
 H       -16.1668714770       -3.1053227813        1.2258147045
 H       -15.9726000427       -1.5036479551        0.6134846303
 H       -16.3003460367        0.6096650519        3.4797036852
 H       -17.0481600289        0.3263026583        2.0003444455
 H       -15.3429358157        0.6548860371        2.0240959434
 Na      -10.1360926970        3.6322859154        0.4141883703
