117

 C       -16.8891839557       -3.2852617666        4.4257886429
 C       -16.5977017851       -1.7923532121        4.3772740991
 O       -16.8905405609       -0.9626079189        5.2284800903
 C       -15.8814176334       -1.3230421814        2.9913231423
 C       -14.4093551144       -1.6796732987        3.0637531938
 O       -13.8508627993       -1.5356716058        4.0876524256
 C       -13.4756717672       -1.8826184467        1.8200674668
 C       -11.9915038275       -1.8293779674        2.3303388943
 C       -10.8533025805       -1.5481521044        1.2078364756
 O       -10.8037578532       -2.0934543575        0.1312626538
 C        -9.6034208011       -0.7290061604        1.6887466624
 C        -9.5334936659        0.3838172743        0.6790150377
 O       -10.3214569749        1.3393244907        0.6614398116
 C        -8.2747036545        0.3958429072       -0.2741224517
 C        -8.1043451740        1.7983200252       -1.0249976367
 C        -7.2155808974        2.8653971375       -0.1743450275
 O        -7.7919127819        3.5961510378        0.5912935790
 C        -5.6951748180        2.9174990617       -0.1074159770
 C        -5.3780824966        2.8380427561       -1.6850763459
 O        -5.1467541113        1.7903183983       -2.1404355592
 C        -5.5964948808        4.2389081853       -2.5777825671
 C        -4.2730012814        4.8724536370       -2.9391781445
 C        -4.5238967577        6.1867193736       -3.8182297671
 O        -4.8369848112        6.1042093765       -4.9516236163
 C        -4.4456825691        7.5660922567       -3.0209588017
 C        -5.5152578575        7.7873783499       -2.0987661607
 O        -5.4040824575        7.7409436462       -0.8745119518
 C        -6.9075978319        7.8047621197       -2.9611868174
 C        -8.2660112187        7.3775263577       -2.3184262387
 C        -9.5439559726        7.7855392201       -3.1926391080
 O        -9.6864536783        8.6322428193       -4.0656273529
 C       -10.7392367355        6.5993717600       -3.1477098689
 C       -10.9962922371        5.9657745334       -1.7853996726
 O       -10.5397503615        4.8534451933       -1.5233678679
 C       -11.9312155710        6.7394500641       -0.8857357095
 C       -11.7701292793        6.3217487539        0.6395890743
 C       -10.3899064938        6.5764305715        1.2853442864
 O        -9.3606738652        6.7123168930        0.6261229952
 C       -10.4098631547        6.6780289500        2.8551918374
 C       -11.0107855385        5.3495992056        3.5135305045
 O       -10.8011949307        4.2846276322        2.8694292903
 C       -11.8585097499        5.4236965857        4.6922215674
 C        -8.9336493376        6.9106783725        3.2538662272
 C       -11.1839602191        8.0792703641        3.1728427900
 C       -12.1505006149        7.1600904906       -3.6770763379
 C       -10.0620100294        5.6061716487       -4.1902670116
 C        -3.0097221075        7.7654311371       -2.4257869234
 C        -4.4172378453        8.8201800512       -3.9786072211
 C        -5.3004489921        4.2154179673        0.5535946758
 C        -5.1122818541        1.7028501196        0.6221175314
 C        -9.6932348227        0.1007636765        3.0414369356
 C        -8.4400608900       -1.8408460569        1.6724184853
 C       -16.5285185650       -2.1718566289        1.7893736682
 C       -15.9419316082        0.1301036145        2.9497115803
 H       -15.8653482500       -3.6618368944        4.2814364871
 H       -17.6539700462       -3.5538978949        3.6689721254
 H       -17.2668135717       -3.5570322224        5.3864649587
 H       -13.8344969173       -1.1173674255        1.0724231086
 H       -13.6775068075       -2.8835074313        1.5371957163
 H       -11.5995780549       -2.7149068009        2.9167877999
 H       -11.9265327022       -1.0364565699        3.0413413181
 H        -8.6308543010       -0.2895026643       -0.9595878153
 H        -7.2189619686        0.0969735473        0.0463603294
 H        -9.1275946565        2.0671132636       -1.1413901191
 H        -7.5427402345        1.5967315390       -1.9697889743
 H        -6.3049954862        5.0567257767       -2.1902744706
 H        -6.1004249864        3.7795712144       -3.4259798907
 H        -3.7492386374        4.1575724896       -3.4944297406
 H        -3.6810158437        4.9338579631       -2.0689311384
 H        -6.9062711355        7.3510801371       -3.9141570181
 H        -7.0732725701        8.8786622598       -3.2730804939
 H        -8.3936467407        7.9148904749       -1.3405016377
 H        -8.4765600402        6.3754821841       -2.0823426771
 H       -13.0011598596        6.6117411993       -1.1146692316
 H       -11.6586223245        7.7771907094       -1.0151209001
 H       -11.9049856026        5.2889007252        0.6965146450
 H       -12.3884908866        6.8241304108        1.2697620122
 H       -11.3101497134        5.6175850692        5.5572386584
 H       -12.3123000334        4.4536340180        4.9271480512
 H       -12.6914661284        6.1069337141        4.6332799099
 H        -8.4418000070        6.4328552003        2.4245242102
 H        -8.4948394398        6.6406014056        4.2444197180
 H        -8.7148099890        7.9920397159        2.9722744205
 H       -12.2896746243        8.1045210051        2.9988090283
 H       -10.8203515250        8.9030958571        2.5402861172
 H       -11.0296673085        8.4323161650        4.1443375537
 H       -12.7932454425        6.2196919162       -4.0163793821
 H       -12.1067151425        7.9779704203       -4.4589525988
 H       -12.7662528472        7.7760902089       -2.9548515578
 H       -10.7237543036        5.5839373087       -5.0411827307
 H        -9.9383875588        4.6216480486       -3.6942999103
 H        -9.1187514383        6.0056891510       -4.4545741209
 H        -2.3889353968        7.8527522629       -3.3090823383
 H        -2.7543004843        6.9419495009       -1.7732240168
 H        -3.0692105194        8.7455098953       -1.8121749676
 H        -5.3352636366        8.7256003314       -4.5806151960
 H        -3.4618405315        8.9034592141       -4.6131384775
 H        -4.2774720115        9.7535580371       -3.4563921076
 H        -4.2450775867        4.3223702180        0.4877693979
 H        -5.4776446102        4.2403125981        1.6788051665
 H        -5.7925204673        5.0692253446        0.0097489406
 H        -5.7675682231        1.4162697721        1.4789838579
 H        -4.1512561672        1.8466255417        1.1193058676
 H        -5.0477834078        0.8748611539       -0.1803245757
 H        -9.9363930211       -0.5333320129        3.8721794568
 H       -10.3991875413        0.9445347053        3.0322344105
 H        -8.6273635079        0.5533763832        3.1051879703
 H        -8.7014849481       -2.4915428298        0.8764424884
 H        -8.2447940084       -2.3997868484        2.5063103048
 H        -7.4907115278       -1.3729702334        1.4151860369
 H       -17.6454611156       -2.1139689405        1.7261049767
 H       -16.2316579853       -3.2279016554        1.9740945283
 H       -16.0860462818       -1.9312378889        0.7536317966
 H       -15.1127402687        0.6174165970        3.5055509133
 H       -16.8897106164        0.4790769410        3.3242689281
 H       -15.7683007155        0.5690100858        1.8712850565
 Na      -10.1268351779        3.9715365882        0.6341286218
