117

 C       -17.0956144125       -3.2319256424        4.5611037423
 C       -16.6985574391       -1.7574376169        4.3946555779
 O       -16.8131003086       -0.9394676915        5.1925124732
 C       -15.9703058496       -1.3199608574        3.0508325607
 C       -14.2529885301       -1.6630298694        3.2785008222
 O       -13.7129948050       -1.4667793514        4.3739215491
 C       -13.4214530825       -1.8637500377        1.9421746937
 C       -11.9938720863       -1.9515660174        2.3389022282
 C       -10.9145904600       -1.6935982902        1.2986375483
 O       -10.9836653613       -2.1080591290        0.1683705550
 C        -9.5709574792       -0.7487971875        1.6773784500
 C        -9.4990531801        0.3255890412        0.5211042161
 O       -10.3522656055        1.2495429917        0.5596105979
 C        -8.4294470094        0.3565509626       -0.5553007456
 C        -7.9269650295        1.7664998908       -1.0468068695
 C        -7.2577369129        2.7188721608       -0.0016666205
 O        -7.8903816660        3.5510085258        0.6239210111
 C        -5.6992397931        2.9408028953       -0.1123668780
 C        -5.3549072834        2.9253077942       -1.6854920398
 O        -4.9425724581        1.8824519651       -2.2330894474
 C        -5.7006119019        4.1516912073       -2.5085252750
 C        -4.3483683012        4.8876416357       -2.9456746632
 C        -4.5090055984        6.0954644030       -3.8210001563
 O        -4.6836107434        5.9475750326       -4.9970069731
 C        -4.3402925823        7.6199745116       -3.2261321589
 C        -5.5909981145        7.7354444318       -2.1312806953
 O        -5.4710048567        7.7537687488       -0.8991510927
 C        -6.9269813700        7.9415018925       -2.8704538691
 C        -8.2698948443        7.4996788008       -2.2364601145
 C        -9.5304623819        7.7046295970       -3.1591516022
 O        -9.5642351566        8.5419142695       -3.9963473157
 C       -10.6723879813        6.5876744848       -3.1395822204
 C       -10.9551743294        5.9418833640       -1.7653993316
 O       -10.5637896045        4.8112087953       -1.5503800425
 C       -11.9254326955        6.6605744409       -0.9470871221
 C       -11.9141187092        6.4503153607        0.6280034307
 C       -10.4279309364        6.6918773643        1.1789963348
 O        -9.4224969206        6.7898020484        0.5536890273
 C       -10.4216742467        6.8073920318        2.6844366067
 C       -11.0803708327        5.4148811358        3.3423571845
 O       -10.6818911567        4.4182646859        2.8893087906
 C       -11.8309362176        5.4502337923        4.6061948237
 C        -8.9795165714        6.8311464216        3.2244651599
 C       -11.3232827571        7.9329315798        3.0499804780
 C       -12.0072870405        7.0116439946       -3.7771860245
 C       -10.0437084284        5.6373939823       -4.1672745725
 C        -2.8367254133        7.8222843279       -2.3983352720
 C        -4.1995987311        8.7643479608       -4.4887489778
 C        -5.2818697221        4.2179257400        0.5644687008
 C        -5.0683631993        1.7854324069        0.7257537994
 C        -9.6577566562        0.0847641573        3.0468512157
 C        -8.4322536935       -1.7551799432        1.9537324238
 C       -16.7958114225       -2.1007820256        1.9082588777
 C       -16.0618079107        0.2423843028        2.9599455469
 H       -16.2298902245       -3.7547700828        4.4767219328
 H       -17.8977440323       -3.5386019793        3.8564137349
 H       -17.5110372476       -3.2385569372        5.5133722114
 H       -13.7259374203       -0.9087754806        1.4075349771
 H       -13.7304271985       -2.7830492195        1.4659134784
 H       -11.6595804188       -2.8315006747        2.7938085537
 H       -11.8491828011       -1.2219363757        3.1374764601
 H        -8.8910626377       -0.2102581653       -1.3958315620
 H        -7.5234553412       -0.2155333831       -0.2334056869
 H        -8.8608687739        2.1742825755       -1.3201549273
 H        -7.1532026915        1.6075226249       -1.8246955888
 H        -6.3357196343        4.8028769522       -1.8404973492
 H        -6.2996417955        3.8444905378       -3.2911472835
 H        -3.7928387046        4.1122171374       -3.4789042957
 H        -3.7282239353        4.9972115228       -2.1338174597
 H        -7.0259533818        7.2087088513       -3.8171025593
 H        -6.9649005074        8.9818693306       -3.4641016906
 H        -8.5471368622        8.0204397952       -1.2944424237
 H        -8.2860414781        6.4538660944       -1.9563000766
 H       -12.8698068678        6.2170628396       -1.2951022443
 H       -11.8991833859        7.7405675662       -1.1460512344
 H       -12.2636600816        5.4825967957        0.8608499075
 H       -12.5157712021        7.2534628497        1.0572013826
 H       -11.1687749200        5.5581538430        5.4771718350
 H       -12.1641113876        4.4841642874        4.7348955456
 H       -12.6184339056        6.1118469365        4.7333897010
 H        -8.2549952638        6.6910194259        2.3358087291
 H        -8.9351361766        5.9288722128        3.8305032772
 H        -8.6823099302        7.6868109401        3.8187967740
 H       -12.2191665646        7.8873896350        2.4455055252
 H       -10.8954210916        8.8704320033        2.7035116147
 H       -11.5402659038        8.1225069717        4.0666431167
 H       -12.5601155306        6.1392460928       -4.1286401244
 H       -11.8891240841        7.7620991669       -4.4540744588
 H       -12.6806065512        7.6526838351       -3.1084546670
 H       -10.8319753451        5.2812576986       -4.8196045298
 H        -9.7535155487        4.8565348240       -3.4739822363
 H        -9.2159155075        6.0310029318       -4.7388289163
 H        -2.0526395475        7.6275295666       -3.1855149829
 H        -2.7838538138        7.1298107110       -1.5912786137
 H        -2.8014307510        8.8139709866       -1.9577820171
 H        -5.2950765685        8.8638159753       -4.7834521245
 H        -3.5212150788        8.5444774502       -5.3397167565
 H        -3.6868637935        9.6821767552       -4.1671632191
 H        -4.1661692930        4.3632309260        0.3937654251
 H        -5.2799886611        4.0697732159        1.6722868571
 H        -5.8724436122        5.0905631075        0.2961567056
 H        -5.7407403141        1.3361891645        1.4424081248
 H        -4.2623946759        2.1150162375        1.3382894205
 H        -4.6971644227        1.1052332908        0.0551580185
 H       -10.3861077770       -0.4252242167        3.7312566813
 H       -10.0140070429        1.0940099703        2.9239819384
 H        -8.7142249961        0.1664390396        3.4342386661
 H        -8.3837908295       -2.4714399921        1.1481961688
 H        -8.5589315557       -2.3252042048        2.8452254726
 H        -7.4855047680       -1.2820814966        2.1625097858
 H       -17.8690632225       -1.8717944517        1.9996229336
 H       -16.6431089454       -3.1844462342        1.8715283470
 H       -16.5118127082       -1.6938266630        0.9630273521
 H       -15.0875390126        0.6557863708        3.3430090971
 H       -16.9025746641        0.5857058180        3.5684839955
 H       -16.0825507964        0.7681470111        1.9558248590
 Na      -10.1236939555        3.9966509517        0.7680919188
