117

 C       -12.3281480687       -0.1757675431        6.7591653418
 C       -12.6323268395       -0.7198339298        5.3802557028
 O       -12.8432914438        0.0439941702        4.4933681212
 C       -12.5752896468       -2.2921251923        5.0728641252
 C       -11.5777476672       -2.4668700358        3.8073728351
 O       -11.9714120598       -2.2517578073        2.6601037697
 C       -10.0107921805       -2.7690295868        3.9795587537
 C        -9.1764610323       -1.5853861332        3.6417920760
 C        -7.6547758027       -1.8443604415        3.4558045199
 O        -7.0342969102       -2.8137553319        3.8592830738
 C        -6.8262398192       -0.8185549629        2.5271983790
 C        -7.1434862085        0.6473586310        2.7838849365
 O        -7.1759487270        0.9562022025        3.9566136034
 C        -6.9634656095        1.6474336479        1.6276432958
 C        -6.7338965497        3.1966362349        2.1679335574
 C        -7.7715416283        4.0930850372        1.5652366047
 O        -7.5282945744        4.4105286302        0.3883884215
 C        -9.0356848708        4.6758756283        2.4197017192
 C       -10.4787164247        4.6171205420        1.4437248298
 O       -10.6897776006        5.4728662673        0.6525816252
 C       -11.3263555637        3.3652766626        1.5088571106
 C       -11.8806757581        3.0966684119        0.0808300948
 C       -10.6539252128        2.9999836157       -0.9366990582
 O        -9.4928588834        3.0272500683       -0.5573652707
 C       -10.9019404692        2.5219183973       -2.4499665730
 C       -10.1736358855        3.6185147341       -3.3492961792
 O        -9.6077589077        4.5815819153       -2.9215136331
 C        -9.8983925039        3.2991359607       -4.8287442549
 C        -9.7102254041        4.6797484154       -5.6032547540
 C       -10.7268200531        5.7861471870       -5.3409743300
 O       -11.8580476040        5.5619250448       -4.9573145898
 C       -10.4306667432        7.2345631043       -5.9244758202
 C       -10.4161607377        8.2692835892       -4.8305295796
 O        -9.3635727751        8.7854984880       -4.4916791166
 C       -11.8021622487        8.5691684670       -4.1476222272
 C       -11.5836084263        9.5478703053       -2.9254447915
 C       -10.4202707008        8.9752650214       -2.0124089409
 O       -10.5815373560        7.8444561633       -1.5483319678
 C        -9.2775614737        9.8814183633       -1.5150260479
 C        -7.8632391878        9.0957134645       -2.0085309805
 O        -7.6837194392        8.0215670337       -1.4409843621
 C        -6.7121994365        9.6309593051       -2.8654331456
 C        -9.2145990584       11.2811773837       -2.1083913248
 C        -9.3024026513        9.9193567799        0.0732625165
 C        -9.1151441845        7.2093344347       -6.7620263253
 C       -11.6111052354        7.6650183161       -6.8915913030
 C       -10.1874453201        1.1243091157       -2.6375493319
 C       -12.3903401663        2.3159226303       -2.8974559018
 C        -9.2997493714        3.7992989553        3.6617201627
 C        -8.6891663511        6.0521535484        2.8596239773
 C        -5.3440482226       -0.9974925080        2.8997407047
 C        -6.9673227027       -1.3502827316        1.0154215875
 C       -12.1439539023       -3.1214236682        6.3117906898
 C       -14.0152008828       -2.7634381580        4.6045039014
 H       -12.2511820245       -0.8150680915        7.6491038723
 H       -13.0333686826        0.5397830439        7.0338547944
 H       -11.4013075258        0.2868041425        6.6590260112
 H        -9.7540633374       -3.6384962344        3.3817308060
 H        -9.8589637542       -3.0602577804        5.0799147890
 H        -9.3531912399       -0.7266341700        4.4093609012
 H        -9.4374627152       -1.0052957655        2.6981114477
 H        -7.8356684519        1.5817441270        0.9661570580
 H        -6.0058469870        1.4680663962        1.0685955940
 H        -5.7654661889        3.5361360843        1.7587116831
 H        -6.7220526707        3.2790408693        3.2928365062
 H       -12.1057913813        3.4894137536        2.3426317862
 H       -10.8495339453        2.4372509941        1.8309446978
 H       -12.6022832357        3.8144359608       -0.3451910106
 H       -12.4879066767        2.0849510435        0.1995170241
 H       -10.5755923858        2.6822597256       -5.3244180996
 H        -8.9751034047        2.7584721275       -4.8884989653
 H        -9.5171665959        4.4167764634       -6.6351132044
 H        -8.8292344767        5.1276480546       -5.2037516029
 H       -12.2872427872        7.6763961861       -3.8181205450
 H       -12.4380951599        8.9985632666       -4.8604014973
 H       -12.4912378812        9.7976134251       -2.3890027289
 H       -11.2126476640       10.4623195219       -3.3465332576
 H        -6.8353123166       10.4616935833       -3.5902598793
 H        -6.4742627560        8.7761550617       -3.5388611664
 H        -5.8171197193        9.8246833355       -2.1905815184
 H       -10.1471217637       11.8732036776       -2.1284228344
 H        -8.9481785643       11.1676811986       -3.2194187673
 H        -8.4820815345       11.8202983265       -1.5992290063
 H        -9.9053790719        9.2904150109        0.6549815447
 H        -9.4828301473       10.9368895055        0.4520489860
 H        -8.2469401845        9.7535527776        0.5149973209
 H        -9.3096572521        6.4993247888       -7.6114039134
 H        -8.2453191309        6.9059497253       -6.0994809631
 H        -8.9506126474        8.2127935159       -7.1479883561
 H       -11.6681953337        7.1711154758       -7.8820695890
 H       -11.3977830603        8.7188550401       -7.1519960763
 H       -12.5918245655        7.6626866523       -6.3357218550
 H       -10.6052659335        0.5465577206       -3.4432670834
 H       -10.1048215720        0.5178161958       -1.7056774978
 H        -9.2143505543        1.3563978321       -2.9784544420
 H       -13.1146354476        3.0836901884       -2.5618293337
 H       -12.7695252126        1.3193687588       -2.6437582806
 H       -12.5082310027        2.4087124245       -3.9309679092
 H        -8.8958148085        2.7461466782        3.5905145622
 H       -10.3571454347        3.8577158861        3.9667680261
 H        -8.7682497182        4.2061811864        4.5122671533
 H        -8.8066173901        6.8149005392        2.1134887673
 H        -7.6333005896        6.0821351815        3.1946350969
 H        -9.2337357029        6.2732838609        3.7678230928
 H        -5.1426823912       -2.0572378552        2.7016742996
 H        -5.2290211298       -0.9676182806        3.9884113605
 H        -4.7200398976       -0.2900382439        2.3354649450
 H        -7.7254135009       -0.7566512781        0.4841013491
 H        -7.1644155068       -2.4021107924        1.0536620545
 H        -6.0500747996       -1.1826006348        0.4635746366
 H       -11.0092633153       -3.0586880659        6.4521009798
 H       -12.2823771111       -4.2143698095        6.1277339344
 H       -12.6692713224       -2.7406707432        7.1444267172
 H       -14.1951178932       -2.0905071466        3.7130172062
 H       -14.7480092534       -2.5697849698        5.4037888850
 H       -13.9625222108       -3.8211169416        4.2209425748
 Na       -8.9579548627        6.0631074280       -0.7827341757
