117

 C       -17.3326651943       -2.5129717571        5.4236527467
 C       -16.6500731375       -1.2720444401        5.0841476413
 O       -16.9051200951       -0.3046831998        5.7198983476
 C       -16.0132656920       -0.9547445698        3.7359009398
 C       -14.4725401432       -1.4424367778        3.8449613710
 O       -14.0411908808       -1.8114348672        4.9190131174
 C       -13.7088549826       -1.5597642099        2.4681424552
 C       -12.2250598470       -2.0495818172        2.7586312626
 C       -11.3135291357       -1.2666319156        1.7486937685
 O       -11.7064383006       -1.2846193779        0.5811160990
 C        -9.9969730373       -0.5562692596        2.1207692188
 C        -9.5893438912        0.2956398413        0.7617326348
 O       -10.3356717787        1.2272090964        0.4421268769
 C        -8.4776312323       -0.0264562809       -0.1867515896
 C        -7.9072971733        1.2796966028       -0.8657248831
 C        -7.2046379238        2.5253397656        0.1014464141
 O        -7.9795676195        3.4816201037        0.4184635936
 C        -5.6576866145        2.6182730406        0.0478426143
 C        -4.7988422048        2.8338581586       -1.4239112205
 O        -4.0969864050        1.8845022895       -1.8261785210
 C        -5.1852469848        4.0329748116       -2.3124563088
 C        -3.9403331906        4.8727808631       -2.5834661128
 C        -4.1641366187        5.8341215008       -3.9571542984
 O        -4.6725350667        5.3824715150       -5.0007713085
 C        -4.1137890870        7.4146814599       -3.8768764912
 C        -5.3937064394        7.7157588282       -3.0331812793
 O        -5.1026262429        7.9608552262       -1.8583133676
 C        -6.9058073392        7.8799969118       -3.5444318137
 C        -8.0330851428        7.7086816695       -2.5747963472
 C        -9.3622942691        7.5532271244       -3.2678500871
 O       -10.1429713466        8.4290675205       -3.2864680667
 C       -10.1992327190        5.9141820424       -3.4164370309
 C       -10.6462336997        5.6589167938       -2.0236183078
 O        -9.9560271372        4.9530715039       -1.2988340131
 C       -11.8141921242        6.4889036044       -1.5268233117
 C       -11.9083969282        6.6792840267       -0.0469325747
 C       -10.6964429769        7.1647310131        0.7529715590
 O        -9.7316849430        7.7484587101        0.3211483525
 C       -10.7804102124        6.9017932774        2.2562338811
 C       -11.4258741337        5.5223147879        2.8591132190
 O       -11.4418576538        4.4935563868        2.2376881072
 C       -11.6782086443        5.3681153822        4.2974294774
 C        -9.3139307174        6.9907945054        2.9869765370
 C       -11.6866214966        8.1190481614        2.7168266116
 C       -11.1821017288        6.3928466239       -4.4708887343
 C        -9.3083041918        4.7763430103       -4.0090351753
 C        -2.7473199372        8.0364965131       -3.2689777208
 C        -4.0852525583        8.0848288430       -5.2780328591
 C        -5.2547583227        3.8082222730        0.8926946906
 C        -5.2230963472        1.2739287612        0.7682351503
 C       -10.1104017695        0.5330133854        3.2122209018
 C        -8.8748654158       -1.6027558709        2.3373410295
 C       -16.7046579659       -1.7685848106        2.6582012953
 C       -16.0199745786        0.5423072921        3.4774876940
 H       -16.6408184050       -3.3314818056        5.3961812519
 H       -17.9868717625       -2.6322599468        4.4942738971
 H       -17.7324936298       -2.2905516031        6.4218788168
 H       -13.6917899714       -0.5498831213        1.9666268135
 H       -14.3279777282       -2.1900770053        1.9513022045
 H       -12.1349555652       -3.1546959503        2.5477406511
 H       -11.9940494412       -1.8761411972        3.8836342442
 H        -8.6672115094       -0.8312255745       -0.8332830517
 H        -7.5900053786       -0.4746940730        0.3410594347
 H        -8.6888957408        1.7874431919       -1.4486405227
 H        -7.0570724332        0.8531994273       -1.5303504526
 H        -6.0629001828        4.6315879622       -1.7632589193
 H        -5.6578455304        3.5337697218       -3.1555427368
 H        -2.9551428545        4.3169659001       -2.7991097798
 H        -3.7581875213        5.4561125535       -1.7078941225
 H        -7.0250163448        7.3459989665       -4.4656484886
 H        -6.8647416899        8.8628470756       -3.7458065443
 H        -8.1984494784        8.6007055706       -1.9419695773
 H        -7.7580657234        6.8840264196       -1.9736115220
 H       -12.8365404278        6.1274117629       -1.7458638891
 H       -11.6973363895        7.4789504917       -2.0303759382
 H       -12.3632272528        5.8243156250        0.4520036882
 H       -12.7271746287        7.4620931567        0.0001047153
 H       -11.2772556464        6.1494634522        5.0664359115
 H       -11.4121885191        4.2933716137        4.4107049709
 H       -12.7726448299        5.4798896486        4.5181227227
 H        -8.8651887570        6.0388865948        3.3833919190
 H        -9.3201334158        7.6834866044        3.7981126407
 H        -8.7590330140        7.3546007242        2.1991138168
 H       -12.7189049834        8.0171433459        2.2624771263
 H       -11.2912524419        9.0683705031        2.3107087071
 H       -11.8533578656        8.1381349739        3.7900861974
 H       -12.1271423543        5.8104407231       -4.5401266623
 H       -10.8183772748        6.1554987102       -5.5231568353
 H       -11.6967432843        7.3598566437       -4.2204156074
 H        -9.7843656200        3.7716424810       -4.0769427015
 H        -8.3619620049        4.7589356107       -3.4088587207
 H        -8.9986966500        5.0964135619       -5.0139087906
 H        -1.8472852214        7.9817119381       -3.9488261840
 H        -2.5856123586        7.6322294204       -2.3263184563
 H        -3.0599444611        9.0721884397       -3.1981404910
 H        -3.3857888266        7.6412570519       -5.9860150614
 H        -3.8790838171        9.0853081488       -5.3231580467
 H        -4.9687583030        7.7806263817       -5.7805953583
 H        -4.1584634028        3.7074091568        0.8783743087
 H        -5.6348048469        3.8025010824        1.8906113437
 H        -5.5053275195        4.7227174327        0.4819753667
 H        -5.2336645679        1.2959016969        1.8508693815
 H        -4.2281039614        1.0479387442        0.3985967716
 H        -5.7967101051        0.4582635588        0.5041892364
 H       -10.8246629940        0.2027709420        4.0383606060
 H       -10.3836731614        1.4861055951        2.7638899026
 H        -9.1828750463        0.6109984599        3.6536997483
 H        -8.6940731321       -2.1364151939        1.3421212797
 H        -9.0493853167       -2.3421074608        3.1408404121
 H        -7.8890698595       -1.0281333904        2.4416288904
 H       -17.7130862225       -1.3930384950        2.5244285696
 H       -16.7609426231       -2.8138099733        2.8069223109
 H       -16.2493971460       -1.6404154279        1.7391983701
 H       -16.8163156941        1.0521396798        3.9619528377
 H       -16.0447524345        0.7479783119        2.4489425537
 H       -15.0373503612        0.9713497305        3.6742004036
 Na      -10.0902468094        3.5066562991        0.5573168565
