117

 C       -17.3296849320       -2.6186014962        5.7138859418
 C       -16.8433852732       -1.0936069771        5.2051222927
 O       -16.9498112329       -0.0811700928        5.9390620111
 C       -16.0169152775       -0.9095949349        3.7415689767
 C       -14.5968393887       -1.5757756429        3.9653702219
 O       -14.0167216315       -1.8879648809        5.0289198637
 C       -13.6737652185       -1.6359938813        2.6400881841
 C       -12.1551506837       -1.9484041794        2.8067592227
 C       -11.4285336428       -1.2809355090        1.5992483340
 O       -11.8548366017       -1.1353550737        0.5211129463
 C        -9.8748805563       -0.5163607855        1.9720710722
 C        -9.4794529161        0.4161825015        0.8102891233
 O       -10.2860265545        1.3678951708        0.5989557530
 C        -8.2575327749        0.1898629134       -0.0318288715
 C        -7.8239896592        1.4133383555       -0.9165435733
 C        -7.1054873568        2.5762747733       -0.2058711551
 O        -7.7153425376        3.5088394109        0.2628042862
 C        -5.5874072627        2.5034332138        0.0649255594
 C        -4.9698610237        2.6541676723       -1.3706466872
 O        -4.1340339452        1.8914106822       -1.7120784498
 C        -5.1675182792        4.0101343386       -2.2755696503
 C        -3.7995447214        4.9067859294       -2.7335625204
 C        -4.2332217502        5.7139385981       -3.9492349284
 O        -4.7142947898        5.1372450081       -4.9333507833
 C        -4.2089840220        7.2507669252       -3.9655660517
 C        -5.4009712717        7.7825529101       -2.9997088820
 O        -5.2805075662        8.2221302009       -1.8971244615
 C        -6.8074813945        7.7278702327       -3.6776538731
 C        -7.9396460195        7.5660137459       -2.5963034678
 C        -9.4539028975        7.4727820927       -3.0881595901
 O       -10.1501082027        8.4531895370       -3.3616166829
 C        -9.9823833148        6.1396959581       -3.5075000938
 C       -10.5014166938        5.6494026814       -2.0565538675
 O        -9.8550643884        4.7920838516       -1.4289817474
 C       -11.7473871828        6.4380670226       -1.5955604099
 C       -11.8985836125        6.6865298517       -0.0572774014
 C       -10.6304780440        7.0538641739        0.7420032175
 O        -9.7091314607        7.7409562895        0.2608322277
 C       -10.8461278393        7.0196172382        2.3236833951
 C       -11.3587445370        5.4917779680        2.8812091465
 O       -11.5278137969        4.6536043131        1.9954226446
 C       -11.8319914056        5.4103730722        4.3739157230
 C        -9.4052949145        7.0756396836        2.7961866599
 C       -11.7723235417        8.0466284127        2.8346104942
 C       -10.9696882332        6.3164803655       -4.7541174307
 C        -9.1039913426        4.8742217473       -3.9536960486
 C        -2.9931401981        7.8470440581       -3.1855345507
 C        -4.2683946265        7.8911793611       -5.3644771428
 C        -5.2267261430        3.6934829215        1.0080989792
 C        -5.1153088014        1.2647664231        0.7630987994
 C       -10.1629513216        0.4552077798        3.2679173359
 C        -8.8084462208       -1.5012896064        2.5227841114
 C       -16.9556967329       -1.5473723238        2.6358430849
 C       -16.0748413939        0.5861624097        3.4084147314
 H       -16.3771806350       -3.2295431563        5.4892310436
 H       -18.1028576707       -2.9905649719        5.1004720803
 H       -17.4270890409       -2.5387737282        6.8379488122
 H       -13.8250612956       -0.6795726349        2.1134779559
 H       -14.2258243198       -2.3785769222        2.0288567419
 H       -12.0793527486       -3.0337982997        2.6105380144
 H       -11.8469899710       -1.7876411332        3.9096316780
 H        -8.5700579907       -0.5168402435       -0.8457483591
 H        -7.5466590618       -0.4241400999        0.3479431946
 H        -8.7791100977        1.5918057019       -1.4591112170
 H        -7.0737374722        0.9894324559       -1.6020036882
 H        -5.9886182419        4.5513277868       -1.7662925320
 H        -5.6364744651        3.6075368122       -3.2485455800
 H        -2.9696144862        4.2777053360       -2.9334993440
 H        -3.4972653757        5.6084895955       -1.9841716167
 H        -6.6653373871        6.8054297813       -4.3383380604
 H        -6.9819410212        8.7084648536       -4.2864952139
 H        -7.8900805884        8.3675793654       -1.9370026534
 H        -7.5618849201        6.6952890148       -2.0538266100
 H       -12.6113831750        5.7933375169       -1.8457727405
 H       -11.8494776650        7.3374466837       -2.2245699174
 H       -12.4211871044        5.9492074098        0.4241953734
 H       -12.5557941071        7.5161515482        0.0596770684
 H       -11.3840523900        6.1795484413        4.9634388823
 H       -11.6225009081        4.3427537101        4.7241757605
 H       -12.9202841322        5.6412660116        4.5596588568
 H        -8.8151122048        6.3233414947        2.2699112919
 H        -9.2116670102        7.0019914058        3.8682228965
 H        -9.0864732199        8.0264608246        2.3940323747
 H       -12.6658248413        7.9996822936        2.2576250817
 H       -11.3440131327        8.9963424258        2.5303527929
 H       -12.1357296073        8.0476063561        3.9483284853
 H       -11.9775477808        5.7709794160       -4.5261319835
 H       -10.7071972512        5.6273429376       -5.6747863151
 H       -11.3841127625        7.2725340398       -4.8934727489
 H        -9.9082880697        4.1631862775       -4.2538170436
 H        -8.6553217820        4.4419085036       -3.0752887742
 H        -8.3026325179        4.9199162417       -4.7504748793
 H        -2.0200099056        7.7570105108       -3.7409854795
 H        -3.0144306181        7.2400729385       -2.2612242889
 H        -3.1654094311        8.8460239766       -3.0060220665
 H        -3.4892657003        8.2746033463       -5.8970196754
 H        -4.8911188352        8.7358227911       -5.3549890960
 H        -4.7314360116        7.0844669093       -5.9246242837
 H        -4.1438397863        3.6725105496        1.1303043710
 H        -5.7027934802        3.5973048640        1.9329798971
 H        -5.4712935158        4.6424162960        0.5231700216
 H        -5.4701316394        1.2197465419        1.8093515243
 H        -3.9819565792        1.3038166854        0.7240163964
 H        -5.4206798358        0.2508906440        0.3277464113
 H       -11.1878506102        0.3233952057        3.6543207495
 H        -9.9848920862        1.5229396823        2.9404693727
 H        -9.5081491956        0.2026325134        4.1308462662
 H        -8.5521837667       -2.4575561098        2.0621589273
 H        -9.1785863262       -1.6593990240        3.5801836608
 H        -7.8843133048       -0.9646380396        2.5292655238
 H       -17.8182664718       -0.9513195279        2.8833149868
 H       -17.2210802910       -2.5899944898        2.6308251711
 H       -16.7862808099       -1.3385086442        1.6061190540
 H       -17.1458102059        0.7742354482        3.5029837614
 H       -15.7908275572        0.9228417155        2.3671757271
 H       -15.4648592645        1.1575834663        3.9781701586
 Na      -10.1362717558        3.4256597310        0.4753856343
