117

 C       -17.1533245951       -2.4089848710        5.8421970222
 C       -16.7983492310       -0.9798955425        5.3649701209
 O       -17.0614169658       -0.0615381760        6.0864785659
 C       -16.2653370266       -0.8821923629        3.9208237088
 C       -14.6318755060       -1.5781531542        3.9679150302
 O       -14.2483183710       -1.8831952337        5.0160547055
 C       -13.6760527356       -1.6816680686        2.6508834751
 C       -12.1494507238       -1.8077683309        2.7496354747
 C       -11.3824017237       -1.1816097751        1.6513427042
 O       -11.8392673679       -1.0061154232        0.5434714667
 C        -9.9044895938       -0.4545797516        2.0932064686
 C        -9.4990153835        0.4688028147        0.9159250008
 O       -10.2287229963        1.4048262873        0.7138219579
 C        -8.1680889194        0.3192869067        0.0391350665
 C        -7.7650913945        1.4768389050       -0.9934334967
 C        -7.0963586351        2.5254250767       -0.2043098932
 O        -7.6946381761        3.5077354999        0.1208411525
 C        -5.4923050647        2.5477603095        0.0893490861
 C        -4.6660313414        2.7761640685       -1.3728655848
 O        -4.1260530562        1.8199137626       -1.7380120122
 C        -5.0901634868        3.9642577974       -2.2053858101
 C        -3.9515780923        4.7206927014       -2.6984615715
 C        -4.4236494263        5.5794743131       -3.9164889572
 O        -4.7489294068        4.9655258023       -4.8529960484
 C        -4.3976690351        7.2263222625       -3.8719736680
 C        -5.5131138495        7.8124509994       -3.0915612434
 O        -5.4342052522        8.3674074994       -2.0254018901
 C        -6.8917197859        7.5109251305       -3.7431188080
 C        -7.8928454615        7.4985042219       -2.6013524575
 C        -9.1937114589        7.5276706230       -3.3521505329
 O        -9.8991886852        8.4804127888       -3.2319831151
 C        -9.9176150386        5.9727372869       -3.5953059711
 C       -10.5018072438        5.6689905963       -2.2338082228
 O        -9.9830573695        4.7924559244       -1.5519857494
 C       -11.7043262035        6.3746064878       -1.6948433758
 C       -12.0109897113        6.6441502648       -0.1232798921
 C       -10.7977797970        7.1126828917        0.7296064840
 O        -9.8008811128        7.5254478503        0.2172586050
 C       -10.7954025777        7.0504364445        2.2801929795
 C       -11.3783567451        5.6331622453        2.7241519519
 O       -11.5429153442        4.6369932303        2.0063651561
 C       -11.8692335620        5.4689902339        4.0992338104
 C        -9.2970751401        7.1799116010        2.9188613208
 C       -11.7831172669        8.0265093041        2.9323724733
 C       -10.9172050147        6.1009419082       -4.7014680980
 C        -8.7054290147        4.9964840186       -3.9718158914
 C        -2.9563738795        7.7220998797       -3.0808911722
 C        -4.4675127908        7.6421443676       -5.3801818264
 C        -5.1508353040        3.7312202942        1.0644859032
 C        -5.0030031814        1.2034212254        0.6245508073
 C       -10.3374359283        0.4453191824        3.2580226588
 C        -8.8395676173       -1.4956259116        2.5370370467
 C       -17.0517629653       -1.5578364120        2.7561763075
 C       -15.9581296872        0.5636033609        3.5300503539
 H       -16.3513220342       -3.1228950744        5.5642956860
 H       -18.0545163558       -2.6592982959        5.3108207919
 H       -17.2341453192       -2.2703623099        6.9147541876
 H       -13.9088980593       -0.7799526699        2.0994242182
 H       -14.2496487540       -2.4731168471        2.0115502910
 H       -11.9380487856       -2.8712135059        2.8634973864
 H       -11.9644735605       -1.3749664170        3.7048622186
 H        -7.9777884572       -0.6756267710       -0.4353160311
 H        -7.3743099082        0.1819552824        0.7689293882
 H        -8.7411461650        1.6636055705       -1.4822296078
 H        -7.0595465043        1.1892847094       -1.7168655692
 H        -5.7858034317        4.3928641766       -1.6066996046
 H        -5.6489368099        3.5797415566       -3.0987134015
 H        -3.3338894395        3.9521903693       -3.0261219330
 H        -3.4467117304        5.3792970024       -1.9745220653
 H        -6.6457779333        6.5163125704       -4.2247919735
 H        -7.3469711693        8.3262850283       -4.4993702173
 H        -7.7483315374        8.3365985240       -1.9281038494
 H        -7.7908792726        6.5673337354       -1.9964485128
 H       -12.5483818795        5.7989430490       -2.1047081857
 H       -11.7807920494        7.3195310360       -2.2267431107
 H       -12.3676228771        5.7677334236        0.4452872456
 H       -12.8631888200        7.2303884469       -0.0736152332
 H       -11.3503356925        6.1064574690        4.7617893678
 H       -11.7446567082        4.4360375191        4.2976262627
 H       -12.9015129619        5.7199819583        4.2948422789
 H        -8.5032009351        7.1499426814        2.2003428389
 H        -9.1460922240        6.5144184032        3.7826652880
 H        -9.3265364305        8.2659813295        3.3013391598
 H       -12.7621396442        8.0055950739        2.4666661332
 H       -11.3499010475        8.9765695536        2.6170767085
 H       -11.9493049594        7.9914134279        3.9981030063
 H       -11.9621403505        5.7252506752       -4.6383954224
 H       -10.6195801812        5.6349878588       -5.5544794389
 H       -11.1648251282        7.1665516351       -4.7564454146
 H        -9.0837817972        4.1482299231       -4.5623473816
 H        -8.2483582193        4.5823512477       -3.0701671480
 H        -7.9300606524        5.4698490100       -4.5728731405
 H        -2.2835803238        7.1928374661       -3.6677524021
 H        -2.9987337188        7.1797284764       -2.1273639380
 H        -2.6532245478        8.7877939999       -3.0480889685
 H        -3.8699272308        8.5090197500       -5.7095203413
 H        -5.4303597463        8.1938706647       -5.6054284735
 H        -4.3669377945        6.7678675322       -5.9979361108
 H        -4.1216021649        3.7290500296        1.3071751689
 H        -5.7266707882        3.5728496548        2.0051556785
 H        -5.4008025297        4.7363096956        0.5708511480
 H        -5.6984874229        0.8338665615        1.4466635522
 H        -3.9624847265        1.2682253082        1.0272377337
 H        -5.0335090561        0.3188867817       -0.1204975197
 H       -11.3787527954        0.6506270695        3.2673280273
 H        -9.7783280335        1.3856501581        3.0518170317
 H       -10.0883201238        0.0221328733        4.3252490682
 H        -8.7082181361       -2.2895468175        1.8609665632
 H        -9.1332397959       -1.8988728737        3.4758341709
 H        -7.8899423544       -1.0354551702        2.5478981278
 H       -18.0428359552       -1.1379755984        2.6896106357
 H       -17.0744951501       -2.6617349198        2.6922117865
 H       -16.6102467925       -1.2466480850        1.7535212305
 H       -16.8178699532        0.9704682250        2.9535863950
 H       -15.1212403646        0.6675010363        2.8080713941
 H       -15.5695765108        1.1743923712        4.4040015988
 Na      -10.1543033738        3.5644715399        0.3546838778
