117

 C       -16.9444515435       -2.3317366034        6.0604367697
 C       -16.6446592014       -0.8762033638        5.4324257286
 O       -17.0919322851        0.1198791194        5.9900246578
 C       -16.0507052893       -0.7724392116        4.0914266287
 C       -14.7148996723       -1.5255209791        4.0328362721
 O       -14.1281781919       -2.1217649137        4.9830387479
 C       -13.9885074558       -1.5872192505        2.5770284230
 C       -12.3811244515       -1.5830821911        2.8481743979
 C       -11.5889071155       -0.9395734412        1.7427247486
 O       -11.8633659845       -0.9606609897        0.6094074558
 C       -10.1435989992       -0.2680839351        2.2092281741
 C        -9.5675085133        0.6246633763        1.0600700339
 O       -10.1704820450        1.6498374108        0.6767116988
 C        -8.2138043385        0.2920993262        0.4808149807
 C        -7.7195660805        1.2435108763       -0.4976895088
 C        -6.9977848353        2.4297221777        0.0519538966
 O        -7.5296483751        3.5420304801        0.0948078730
 C        -5.5402530112        2.3678434542        0.1023054355
 C        -4.8304445640        2.6629913954       -1.3020661133
 O        -3.9178024849        1.9168014600       -1.7127462428
 C        -5.2777009969        4.0333903667       -2.1288311169
 C        -3.9614770379        4.6818579118       -2.6634042853
 C        -4.4582900130        5.4878178469       -3.9164481041
 O        -5.1257545399        4.7968150075       -4.7298543712
 C        -4.1986758261        7.0981398603       -3.9187160656
 C        -5.3789350642        7.7862658588       -3.2502982266
 O        -5.2155698888        8.5259016888       -2.3354075865
 C        -6.8655711530        7.5361234986       -3.6502204518
 C        -7.8657895950        7.4410302303       -2.5380926953
 C        -9.2541869747        7.4127108163       -3.2823912568
 O        -9.9365869667        8.4025795350       -3.4907663557
 C        -9.8802812306        5.9959911335       -3.6385037595
 C       -10.5859246964        5.6058240798       -2.3141233469
 O       -10.2338171063        4.5808722481       -1.7279948497
 C       -11.6340984981        6.5576736692       -1.7750938522
 C       -11.9662007106        6.3935520347       -0.3578261893
 C       -10.8098013327        6.9210766007        0.5446371420
 O        -9.7758425660        7.2379245412       -0.0605460376
 C       -10.9279262187        7.0303554835        2.1489753084
 C       -11.4594163790        5.6385820084        2.6180633238
 O       -11.1591277759        4.6232944284        2.0148836649
 C       -12.0083895178        5.4081216121        4.0302263458
 C        -9.5793054384        7.1550260127        2.7179703587
 C       -11.8755917494        8.2049761792        2.5440151764
 C       -10.9197061496        6.0849852250       -4.7320834332
 C        -8.9147790489        4.8852790721       -3.9445519601
 C        -2.7647825177        7.4801506808       -3.2315899635
 C        -4.1633927603        7.5079075770       -5.3795273965
 C        -5.0236940876        3.5384559403        0.9340987914
 C        -4.9774342161        1.1038679978        0.7367794353
 C       -10.1687045146        0.7125681225        3.5508174935
 C        -9.1936800478       -1.5047804211        2.4557279378
 C       -17.0284688651       -1.5065191291        3.1398494302
 C       -15.8761765995        0.7591110570        3.7100885535
 H       -16.1840980770       -3.0738507513        5.8715458913
 H       -17.9279075907       -2.5421999900        5.6954983845
 H       -17.0161681077       -2.0370731841        7.0850217741
 H       -14.3042998667       -0.8414130887        1.8008793541
 H       -14.1970133043       -2.4537805136        2.0593724642
 H       -12.2195918367       -2.6374358317        2.9838282272
 H       -12.2845913838       -1.1535013914        3.8642086545
 H        -8.3136390032       -0.6945535494        0.0197362272
 H        -7.3549093957        0.0140081440        1.1090458290
 H        -8.5680346855        1.4714073193       -1.1360228221
 H        -6.9586895526        0.7730825246       -1.2059722358
 H        -5.9258389247        4.7039355711       -1.4598387771
 H        -5.8903459973        3.7167987866       -2.9453803677
 H        -3.1981539438        3.8506803167       -2.9904965398
 H        -3.5401410021        5.4799619815       -2.0449517950
 H        -6.8278884723        6.6865946433       -4.2297176048
 H        -7.2250401728        8.3058645828       -4.2068492840
 H        -7.7473301473        8.1749362284       -1.7130509488
 H        -7.7309399923        6.4486525179       -2.0772499014
 H       -12.4694441845        6.3114764722       -2.4495383781
 H       -11.4450134352        7.6164870199       -2.0476353806
 H       -12.4302124064        5.4714477897        0.0043336669
 H       -12.8972121715        7.0964572676       -0.1311430625
 H       -11.3274239765        5.7011501107        4.8348805488
 H       -12.3930462510        4.3551633529        4.0497764853
 H       -12.9043808657        6.0025838509        4.2310066197
 H        -9.2500054899        8.1797745270        2.3889372259
 H        -9.0056546491        6.3643076454        2.2032760442
 H        -9.4571201626        7.0372395164        3.7565205836
 H       -12.9181581413        7.9903274144        2.4938868250
 H       -11.6116279636        9.1602581261        2.1375911987
 H       -11.7218117541        8.2099189871        3.6562329019
 H       -11.4161750489        5.1359757728       -4.9743799941
 H       -10.3651306601        6.4102481476       -5.7102258311
 H       -11.7016266576        6.7073054758       -4.5329912364
 H        -9.1343591823        3.9051045136       -3.5532531498
 H        -7.8858464615        5.1058813349       -3.7049420767
 H        -8.8485272367        4.8116541709       -5.0650403849
 H        -2.0216871720        6.6656175272       -3.4941689044
 H        -2.8840731319        7.7003137647       -2.1855847506
 H        -2.4693773457        8.3114655262       -3.8154913686
 H        -4.6841350299        8.3802162996       -5.7068194334
 H        -4.7240358309        6.7617578311       -5.9727140566
 H        -3.0848171515        7.3924389928       -5.7449134662
 H        -3.8822089163        3.5016631594        1.0546828277
 H        -5.4319965066        3.3540733076        1.9110342625
 H        -5.2478369295        4.4824859332        0.4873704444
 H        -5.4174726607        1.0415894583        1.6714823698
 H        -3.9414371803        1.2395935651        0.8892424234
 H        -5.1524507621        0.1774830335        0.3186590372
 H       -10.4384579698        1.7441502020        3.2554081890
 H        -9.2930061595        0.7281622214        4.1349402144
 H       -10.9959090543        0.4519639649        4.1100660167
 H        -8.8131131361       -1.9666156159        1.5462452740
 H        -9.7707061932       -2.3333982543        2.9344184996
 H        -8.3050596226       -1.2189260825        2.9882716038
 H       -18.0696343114       -1.0965487337        3.0407354689
 H       -17.0337063568       -2.5489059877        3.5019981568
 H       -16.6597094471       -1.6041212049        2.1389273605
 H       -16.3716247657        1.0267433833        2.7663881211
 H       -14.8357769952        1.1172478409        3.5145118887
 H       -16.1247108326        1.3180812310        4.5715990275
 Na       -9.9920371691        3.9250564838        0.2214428832
