117

 C       -12.1335838505       -0.0872679060        6.7877828002
 C       -12.4782185137       -0.6671959940        5.4774607639
 O       -12.9384914303        0.0229986682        4.5708867212
 C       -12.4255579809       -2.2975013665        5.1691705374
 C       -11.4700665825       -2.4684715682        3.9673261373
 O       -11.9504161598       -2.3120418200        2.8773694127
 C        -9.9617515149       -2.8303088495        4.1229537128
 C        -9.0872986220       -1.6344254280        3.6814802769
 C        -7.5609917236       -1.8730298400        3.4647992283
 O        -6.9763824946       -2.7111440569        4.1493060755
 C        -6.7889129021       -0.9237467320        2.4799785792
 C        -7.0389412921        0.5866007962        2.7910729654
 O        -7.2413826571        1.0770078077        3.9175564317
 C        -6.9639807179        1.6226091363        1.5834658151
 C        -6.9159110270        3.0877274649        2.1599081119
 C        -7.8708894162        4.0660536596        1.3811731958
 O        -7.6143760012        4.5951963614        0.3521409714
 C        -9.1094145282        4.7106883141        2.2970806319
 C       -10.3843861509        4.6112786958        1.3110436376
 O       -10.5903745037        5.5514076960        0.4965112798
 C       -11.2288873956        3.4346216044        1.4384593548
 C       -11.8149086219        3.1720820651        0.0296276713
 C       -10.7349853117        2.9180608652       -0.9743088483
 O        -9.6097983812        3.0918583196       -0.5831337979
 C       -10.9301991964        2.5717314488       -2.4117603141
 C       -10.1276479787        3.6170036234       -3.2733759239
 O        -9.5447788178        4.6081104235       -2.8218914421
 C       -10.0010141988        3.2874400150       -4.7659776706
 C        -9.6338751089        4.6601734156       -5.5671718423
 C       -10.7808657623        5.7470044196       -5.4556203315
 O       -11.8100845600        5.4835915651       -4.9355760950
 C       -10.4868028446        7.2182072204       -6.0585704305
 C       -10.3623906001        8.2514926846       -4.9111567163
 O        -9.3382980300        8.7600935156       -4.4756723061
 C       -11.6645628928        8.6262055445       -4.1817738922
 C       -11.4909225651        9.5117564504       -2.8918733147
 C       -10.5096156338        8.9051682969       -1.8926533632
 O       -10.6151388754        7.7568743827       -1.5229364169
 C        -9.2082545746        9.8596339500       -1.5170387083
 C        -7.9727430210        8.9824151135       -1.8215809181
 O        -7.8819567786        7.8532598794       -1.4142257454
 C        -6.9791883096        9.6088035316       -2.7363508766
 C        -9.2209416202       11.1971021823       -2.2531548382
 C        -9.3038926156       10.1559190456       -0.0113997529
 C        -9.1236735093        7.2722189788       -6.9259554010
 C       -11.6794935631        7.4666865143       -7.0706904647
 C       -10.1861512566        1.2317627478       -2.6294962063
 C       -12.4488106371        2.4039613215       -2.6538469271
 C        -9.4200846197        3.9078340600        3.6123085369
 C        -8.6111630589        6.0962003735        2.6083660401
 C        -5.2989177970       -1.0999275553        2.8215505608
 C        -7.1393677881       -1.3703370983        1.0219149981
 C       -12.0732236254       -3.0569717668        6.4354021972
 C       -13.8027387468       -2.7637042680        4.5618490638
 H       -12.0911943506       -0.7362573000        7.6223433024
 H       -12.9507426609        0.6540296209        7.1628526041
 H       -11.1541777964        0.4260055405        6.7150568408
 H        -9.8036597857       -3.7407140296        3.4740705681
 H        -9.7544334446       -3.1996459926        5.2057959823
 H        -9.3160390338       -0.7415310965        4.3106714918
 H        -9.3735105239       -1.2308311320        2.6673028324
 H        -7.8250825447        1.5175934778        0.9171892113
 H        -6.0503538258        1.6306837094        0.9949554286
 H        -5.9478567448        3.4187418227        1.9830037616
 H        -7.1280456723        3.1664045832        3.2285057304
 H       -11.9831130632        3.5958576444        2.2379350354
 H       -10.7253838645        2.5180905753        1.8202121204
 H       -12.3977030182        4.0503635635       -0.3887694667
 H       -12.5726484623        2.3625768440        0.1178127893
 H       -10.9313320087        2.9324712881       -5.2396726226
 H        -9.2364458361        2.4839516313       -4.9679433028
 H        -9.4728604658        4.2691130560       -6.6013727722
 H        -8.6726810514        5.1278412344       -5.2582292884
 H       -12.2082977097        7.6976967051       -3.7885757633
 H       -12.3973377771        9.1526088346       -4.8147902758
 H       -12.4805917074        9.4867201488       -2.4630412622
 H       -11.2880021018       10.5860993606       -3.1197229797
 H        -7.2638494754       10.4725348575       -3.2440552618
 H        -6.8487545479        8.8980471672       -3.5841417571
 H        -6.0308615669        9.8097742893       -2.2516463612
 H       -10.1460373609       11.8137780258       -2.0118340267
 H        -9.2550998656       11.0861744059       -3.3639869194
 H        -8.3226282579       11.7289566909       -1.9920236146
 H       -10.0519670716        9.4845985421        0.4908556318
 H        -9.5688502703       11.1805105374        0.2194567204
 H        -8.4935762424       10.0221956821        0.6021557258
 H        -9.1276488303        6.5010976408       -7.7520802990
 H        -8.3269778853        7.1472037021       -6.2842046478
 H        -9.1629897583        8.2637756703       -7.3795933436
 H       -11.5837272815        6.8935092484       -7.9774239199
 H       -11.6168023969        8.5165892291       -7.4515111641
 H       -12.6637392410        7.3245234163       -6.5491510277
 H       -10.7336940881        0.5136839371       -3.2086163714
 H        -9.9376767886        0.7722386443       -1.6768686641
 H        -9.2729354000        1.3852309185       -3.1450088820
 H       -12.8913932162        3.3648946040       -2.7180962752
 H       -12.8878544055        1.7993580378       -1.9169127708
 H       -12.7181584932        1.9823082778       -3.5579332503
 H        -9.2426534394        2.7823462782        3.5467226283
 H       -10.3561102594        4.1721744063        3.9994736846
 H        -8.6761312083        4.2628293073        4.3992866135
 H        -8.4769591710        6.7452388363        1.7479767115
 H        -7.6343284816        6.1055700679        3.1757440098
 H        -9.3576125291        6.4962227771        3.3110425939
 H        -4.9946456846       -2.1771337998        2.9506095606
 H        -5.1920720941       -0.7179780040        3.8316085486
 H        -4.7521186213       -0.5234804728        2.0879180620
 H        -8.0886701611       -0.9173300468        0.7031612419
 H        -7.1621395339       -2.5062322442        1.0673899183
 H        -6.3808787262       -1.0242091038        0.2885494637
 H       -11.0229195365       -2.8433315146        6.6536720749
 H       -12.1022851893       -4.1367049810        6.4415827631
 H       -12.6777492870       -2.4976206829        7.1694879549
 H       -13.8411724893       -2.1115204924        3.6602137704
 H       -14.6201383703       -2.5708832961        5.2836152315
 H       -13.7588098216       -3.8402317941        4.2111320457
 Na       -8.9662875183        5.9929088156       -0.8809758809
