117

 C       -16.6323545563       -1.7068392926        7.0621434416
 C       -16.4193690256       -0.4088853619        6.2190615339
 O       -16.3044681545        0.6139327901        6.8388452646
 C       -16.1750876365       -0.5306224503        4.5745935671
 C       -14.8856704817       -1.1124596877        4.1748409958
 O       -14.2783975397       -1.9112746031        4.8814287483
 C       -14.3682629728       -0.7926807093        2.7714844863
 C       -12.7822303018       -1.0006256809        2.8428261093
 C       -12.0017624214        0.2080079761        2.4852524769
 O       -12.5046387448        1.1738174792        1.9222203129
 C       -10.4180939916        0.2471685033        3.0414431659
 C        -9.7795655808        0.9091759272        1.7901087218
 O       -10.1916476071        1.9038444857        1.2638019645
 C        -8.3164332931        0.2701244869        1.1250887598
 C        -7.7480648431        1.1005107634        0.0537921592
 C        -6.8124622754        2.1876558146        0.4604706938
 O        -7.2476952904        3.3077238706        0.6145915711
 C        -5.2608990382        2.0115754917        0.5663319862
 C        -4.6873621439        2.3621402941       -0.9250650099
 O        -3.5744938630        1.8629870650       -1.2065051304
 C        -5.2573072518        3.5342049996       -1.8024530791
 C        -4.2534178344        4.6512036869       -2.3595216464
 C        -4.5704822468        4.9673915338       -3.7925274454
 O        -5.2847782388        4.3449121025       -4.4663446507
 C        -4.2895447661        6.3756052307       -4.3423292418
 C        -5.2583714408        7.4302976345       -3.5047161917
 O        -4.7890508963        8.3742910129       -2.9473558595
 C        -6.7550173102        7.6191786313       -4.0795491028
 C        -7.8231590411        6.7642736625       -3.4407546634
 C        -9.1887568326        7.1580729403       -4.0674157655
 O        -9.6593405744        8.2255189807       -4.0827889339
 C       -10.0028290902        5.7191102405       -4.5777808238
 C       -10.4314130728        5.2841223591       -3.1371210191
 O        -9.8434147323        4.3956422420       -2.5663990240
 C       -11.4879715001        6.1618980842       -2.4820676718
 C       -11.6300335577        6.1478116050       -0.9494819793
 C       -10.5367859926        6.6157416094       -0.0073442926
 O        -9.3550144038        6.5044722171       -0.2621299951
 C       -11.1727780932        7.0902076223        1.3751144010
 C       -11.4641622249        5.7225727212        2.2055400062
 O       -10.6641358266        4.7632558776        2.0483495623
 C       -12.5358095282        5.6643660047        3.3325647815
 C        -9.9395985054        7.7450798387        2.1832662025
 C       -12.4763167177        7.9749132952        1.3507249422
 C       -11.0965451111        6.1749064122       -5.5806771585
 C        -8.9827449089        4.7268981731       -5.3035172218
 C        -2.7702867883        6.7193303635       -4.0344799251
 C        -4.4051724558        6.5461347379       -5.8512378632
 C        -4.7337941237        2.9705611312        1.6272472515
 C        -4.6708352827        0.6712949473        1.0417454647
 C       -10.4658149587        0.9136100647        4.4128535485
 C        -9.9064038326       -1.2049727850        3.3189102496
 C       -17.2443259285       -1.2467737813        3.7214888138
 C       -16.3622428159        0.9505264676        4.0160203290
 H       -16.4848780545       -1.5761919431        8.0714789074
 H       -15.8933846002       -2.4561270374        6.6441611245
 H       -17.6064849607       -2.0395797176        6.7772362852
 H       -14.4311786949        0.0849276604        2.3030983288
 H       -14.7387384118       -1.5712152082        2.1291621960
 H       -12.4521914497       -1.8695681624        2.2641177573
 H       -12.6227939434       -1.2904964115        3.8696937916
 H        -8.5764188835       -0.7693797443        0.7881102200
 H        -7.6195267469        0.3804440309        1.9425586307
 H        -8.5225479782        1.5076216227       -0.6664102083
 H        -7.1127333741        0.4894044699       -0.5290618778
 H        -6.1040707775        3.9337463205       -1.2498803277
 H        -5.6268282627        2.8623358477       -2.6144331945
 H        -3.2489500363        4.2213254216       -2.4340889827
 H        -4.2596572359        5.5863192766       -1.6625435329
 H        -6.6189447405        7.3333858607       -5.1188163648
 H        -7.0261377072        8.6327407274       -4.1932958854
 H        -7.9809433918        6.9805775506       -2.3617228882
 H        -7.7795928933        5.6881566310       -3.4743009894
 H       -12.5259000343        5.9836683038       -2.8324367795
 H       -11.2556151813        7.1716561021       -2.8410334507
 H       -11.7177304427        4.9974332643       -0.6068691496
 H       -12.5530222098        6.6634662015       -0.7574664839
 H       -12.7834743765        4.5920083835        3.4324133498
 H       -13.4329118104        6.1510572499        3.1916225048
 H       -12.1673881364        6.2169093556        4.1285552937
 H        -9.5748946387        8.7334661643        1.7028936378
 H        -9.0736063014        7.0707540743        2.1667291728
 H       -10.2003343669        8.0287264674        3.2315689335
 H       -13.3693170863        7.4164999667        1.0146565795
 H       -12.3409061312        8.8084909843        0.6560636271
 H       -12.5756764275        8.2974219214        2.2993799262
 H       -10.7418623192        6.0161320085       -6.5834095850
 H       -11.3205227888        7.3118150721       -5.3297444563
 H       -12.0055895642        5.6793387888       -5.3881698749
 H        -7.9318668443        4.8988981635       -5.0713306308
 H        -8.9826020346        4.9720471121       -6.3681491813
 H        -9.0079769627        3.6861356918       -5.1876990172
 H        -2.0317816786        6.0393591249       -4.3809064095
 H        -2.7562823938        6.7804565969       -2.9326243055
 H        -2.6915205275        7.8204859944       -4.3450425916
 H        -4.5612362715        7.6908640756       -5.9828393139
 H        -5.3881807986        6.1612500479       -6.1770725436
 H        -3.4048048539        6.3903514260       -6.3600913232
 H        -3.6611694510        3.2041311746        1.5510024050
 H        -5.0364375806        2.5987333886        2.6637995128
 H        -5.3072076353        3.9224118318        1.5597757084
 H        -4.8971690590        0.4788246816        2.1660512160
 H        -3.5748160866        0.6466944996        0.9353908254
 H        -5.0386723009       -0.1041452264        0.3707731976
 H       -10.5573988823        2.0320463110        4.3427516383
 H        -9.6059905674        0.6376801994        5.0002323408
 H       -11.3227364670        0.5542154211        4.9607192645
 H       -10.5135842845       -1.8695492993        3.8974029179
 H        -8.9324949035       -1.2012150601        3.6588411878
 H        -9.7968283187       -1.5555624927        2.2890078832
 H       -18.2391532502       -0.8640186743        3.8715405384
 H       -17.3572673361       -2.3261367854        3.9419759585
 H       -16.9506914608       -1.2105204722        2.6396774803
 H       -16.3908768527        1.0291466384        2.8746553019
 H       -15.5607955824        1.4767476001        4.5079554858
 H       -17.4095800922        1.3614030728        4.4209204626
 Na       -9.3071130124        3.9728362156        0.1780415472
