117

 C       -16.6306702927       -1.7113987488        7.0074181359
 C       -16.3359398236       -0.4239555394        6.2293060504
 O       -16.1434639012        0.6297282181        6.8395216477
 C       -16.3015704849       -0.3942679127        4.6600805149
 C       -14.9492623844       -1.0001015991        4.2145784978
 O       -14.3809159851       -1.8205492632        4.9857326693
 C       -14.3323854313       -0.8436997181        2.7984429636
 C       -12.7833217609       -0.9871953333        2.7821452595
 C       -12.0445424625        0.3442688854        2.6442904534
 O       -12.4669474764        1.3539492356        2.1306448610
 C       -10.4704700494        0.3308661332        3.0257474573
 C        -9.5589157612        1.1433416233        1.8961863615
 O       -10.1182645563        1.9697867290        1.2429332232
 C        -8.3749929591        0.3248071322        1.3574333242
 C        -7.6544191501        0.8619738586        0.0736978129
 C        -6.7818441888        2.1140695969        0.4575730295
 O        -7.3260116306        3.2434280842        0.5236537027
 C        -5.3247307566        2.0532731499        0.7201475737
 C        -4.5685669397        2.4923646912       -0.7898986994
 O        -3.6634021628        1.7743965332       -1.1620977366
 C        -5.3018146116        3.5214118340       -1.7598922433
 C        -4.2597451867        4.5604789737       -2.3254991295
 C        -4.6871893378        4.8207209979       -3.8338533194
 O        -5.3398168208        4.0572205304       -4.5002753105
 C        -4.2523247500        6.4230186709       -4.3471311568
 C        -5.1474327262        7.4405942210       -3.7213799839
 O        -4.6460751447        8.1799321772       -2.9081627478
 C        -6.6539333089        7.5088462446       -4.1567954301
 C        -7.7992486358        6.8438665996       -3.3737330894
 C        -9.1574409210        7.0175916647       -4.1698562782
 O        -9.7488109846        8.1214068910       -4.1518100676
 C        -9.9149517847        5.7673184168       -4.6742987243
 C       -10.3876851509        5.2931162942       -3.1181291753
 O        -9.8525271401        4.3896800354       -2.4858835167
 C       -11.4960736790        6.0793349792       -2.5769551375
 C       -11.6114646039        5.9591044435       -1.0198412700
 C       -10.4998355748        6.6365419594       -0.0892979195
 O        -9.2767549440        6.6538189905       -0.2332165827
 C       -11.1258410469        7.0258688333        1.2700891485
 C       -11.3804114106        5.7495101876        2.1475924458
 O       -10.7324265815        4.7008515077        1.9351291643
 C       -12.3557479171        5.5917866040        3.2739993978
 C       -10.1468225841        7.8188172440        2.2772622930
 C       -12.3121809476        7.9659102635        1.0810831757
 C       -11.1344434421        6.0797277377       -5.5810480795
 C        -9.0427284720        4.7646672329       -5.3709100133
 C        -2.7409868881        6.8699139129       -3.9678546644
 C        -4.4766015181        6.4968407657       -5.8664795638
 C        -4.7648908694        3.0255590960        1.8297195985
 C        -4.7443551952        0.5466134072        0.9547221661
 C       -10.4616425552        1.0348534436        4.4083405879
 C       -10.0119838704       -1.1752367969        3.1079487585
 C       -17.2700550422       -1.3703432127        3.8548889055
 C       -16.4527018707        1.1373263880        4.1076511585
 H       -16.6640037040       -1.4261009725        8.0423400664
 H       -15.7359903500       -2.3546744416        6.9643489373
 H       -17.5078436841       -2.2071753249        6.6376714794
 H       -14.3744672711        0.1713085084        2.2197757776
 H       -14.7449306529       -1.6462537396        2.2469557594
 H       -12.3715625173       -1.6320082847        1.9689938065
 H       -12.6200411231       -1.5539771491        3.6927351787
 H        -8.9760571097       -0.4980166215        1.1544297292
 H        -7.6886145294        0.2183849087        2.2510716874
 H        -8.3811563327        1.3220416392       -0.6230127928
 H        -7.1006064967        0.0823345189       -0.4924288763
 H        -6.1941656924        4.0491573512       -1.1654870282
 H        -5.7262155433        2.7460096381       -2.4807334021
 H        -3.2046210375        4.2489196921       -2.2715115306
 H        -4.3986957234        5.5063721088       -1.7334557022
 H        -6.7976928714        7.2732278364       -5.2714364308
 H        -6.7882473322        8.6805843964       -4.2590659484
 H        -7.9951874368        7.2345649851       -2.4047708537
 H        -7.7463600546        5.7921916523       -3.3105104974
 H       -12.4573470506        5.6936769618       -2.9905184600
 H       -11.3982418126        7.1348921262       -2.9575993109
 H       -11.4964227583        4.8912564440       -0.8221727479
 H       -12.5828353372        6.3004830111       -0.7255046775
 H       -12.6996070972        4.5558604734        3.2367694280
 H       -13.2539468315        6.2799339716        3.2596201860
 H       -11.8559413900        5.9989066130        4.1482889334
 H       -10.4400268177        8.8871902296        2.1085764272
 H        -9.0547681814        7.7871020534        1.9702178731
 H       -10.2615845698        7.6831690546        3.3225577973
 H       -13.1691092448        7.3165948624        0.8211394311
 H       -12.1397005600        8.6196331688        0.2435045226
 H       -12.5012706083        8.4783322438        2.0130125037
 H       -11.0735503248        5.5031987316       -6.6395500149
 H       -11.3580160191        7.1963490243       -5.6817201389
 H       -11.9718838066        5.6750369809       -4.9644994298
 H        -8.0285893956        5.0902376979       -5.6263408917
 H        -9.4313820498        4.4771114384       -6.3369008751
 H        -8.8004857413        3.9131490291       -4.8020917477
 H        -1.9759921817        6.2926037350       -4.5849904488
 H        -2.5268010957        6.6599690815       -2.9410683401
 H        -2.7591852268        7.9605346934       -4.1292242991
 H        -5.2353552778        7.2480486750       -6.0570935815
 H        -5.1543690733        5.6450385787       -5.9852512453
 H        -3.5990092634        6.7569512722       -6.5556990184
 H        -3.6532645393        3.1625443968        1.5673034045
 H        -4.9576635829        2.8241981596        2.9124869969
 H        -5.2007492535        4.0005832373        1.6589176511
 H        -4.6981801152        0.3807492923        1.9914676105
 H        -3.7045301950        0.4707052147        0.5995599568
 H        -5.3073608827       -0.2018663663        0.4614469967
 H       -10.6042327453        2.1222025929        4.2498257073
 H        -9.5215776391        0.8752109138        4.8581299789
 H       -11.1845828676        0.7243122133        5.0643428236
 H       -10.0874145590       -1.6165141344        4.1406677935
 H        -8.9730307286       -1.4052266926        2.8452510995
 H       -10.5946112693       -1.7389924042        2.3558694218
 H       -18.3916072616       -1.3634135729        3.8326643921
 H       -17.0284387752       -2.2633974191        4.4714937299
 H       -16.9045586267       -1.6813584654        2.8460610247
 H       -16.0126507017        1.2145979092        3.1115465805
 H       -15.9312303197        1.7574744204        4.8756817182
 H       -17.4580099264        1.4250738361        4.0649498292
 Na       -9.4109275335        4.1871407099        0.1125847160
