117

 C       -11.9152000812       -0.0427647139        6.8096245019
 C       -12.4957826875       -0.6766864460        5.5058307113
 O       -12.9894842363        0.0142285782        4.5956005644
 C       -12.3399159589       -2.1363939980        5.3188972636
 C       -11.2948267571       -2.4831423013        4.0638733172
 O       -11.6994823312       -2.3622560347        2.9514533310
 C        -9.8273231264       -2.8242365189        4.2653824708
 C        -9.0842909066       -1.6351961289        3.6118062454
 C        -7.5237401150       -1.8683940487        3.6283154006
 O        -7.0007835002       -2.5989745896        4.3905610782
 C        -6.7439446125       -0.9181075875        2.5379011436
 C        -7.0217900821        0.6072630956        2.7465451904
 O        -7.3423283148        0.9858104135        3.8410848196
 C        -7.0194391500        1.5772789066        1.5201459743
 C        -7.0493029014        2.9894090750        2.0165397649
 C        -7.8775911500        4.1352640042        1.4003052315
 O        -7.6070885940        4.6723100827        0.3618059810
 C        -9.0778396139        4.7416378692        2.2022597228
 C       -10.2862613787        4.6210786255        1.2599477186
 O       -10.4973158077        5.6225557489        0.5401383299
 C       -11.2981168446        3.5008640047        1.3889775178
 C       -11.9137396620        3.2349984103        0.0267662093
 C       -10.6830174473        2.9564950627       -0.8739373044
 O        -9.5375225683        3.1051560545       -0.4764197625
 C       -10.9247457258        2.5843987340       -2.3495805842
 C       -10.1657116530        3.6929452324       -3.2727573599
 O        -9.5669893808        4.5750323035       -2.6716046882
 C       -10.2078159875        3.4955489714       -4.8116588750
 C        -9.6232273757        4.6736571486       -5.5760912207
 C       -10.6903694905        5.7197642068       -5.5787636570
 O       -11.7112589894        5.5032771617       -4.9328492422
 C       -10.5269023319        7.1422445261       -6.1859049074
 C       -10.3919733240        8.2066641061       -4.8948588933
 O        -9.2652268100        8.6067012672       -4.6251502470
 C       -11.7254727895        8.5649507479       -4.1830829259
 C       -11.5574630098        9.3962727135       -2.9442201663
 C       -10.5405692196        8.9091284262       -1.9723512568
 O       -10.5939837834        7.8063355762       -1.4819035017
 C        -9.3485795580        9.8169509547       -1.4870898765
 C        -8.0877698581        8.8793343593       -1.7880023903
 O        -7.8962661569        7.7527961154       -1.3601737368
 C        -6.9812273337        9.4334520290       -2.6983130968
 C        -9.3526144894       11.1627453676       -2.3340667007
 C        -9.3691143654       10.2797441140        0.0253558687
 C        -9.1792072539        7.3073613881       -7.0140786785
 C       -11.6731652809        7.3034007340       -7.1090151150
 C       -10.2154161607        1.1790533380       -2.6525297672
 C       -12.4756394252        2.5611521079       -2.6764965020
 C        -9.4803557176        4.0272029405        3.4762489058
 C        -8.6369665429        6.2218269497        2.3508179911
 C        -5.1533545501       -1.2184139296        2.6759693977
 C        -7.2727984163       -1.3284736819        1.1696626383
 C       -11.9938110275       -3.0743829646        6.5950143842
 C       -13.6990121805       -2.7019233848        4.7564140374
 H       -11.8675666641       -0.7026765901        7.7151637496
 H       -12.6466560002        0.7115859989        7.2178224029
 H       -10.8765982626        0.4334202729        6.6015142069
 H        -9.6712835206       -3.8105500572        3.7008259330
 H        -9.5091180293       -3.0298691502        5.2376674207
 H        -9.2715843094       -0.8095954332        4.2419908699
 H        -9.4168540867       -1.2899064689        2.6347592639
 H        -7.9429653151        1.4401176754        0.9348484926
 H        -6.1975761600        1.4547181410        0.8574991884
 H        -6.0415257526        3.3542218842        2.1025081679
 H        -7.4406492047        2.9222655374        2.9806297461
 H       -11.9913226603        3.6432062279        2.1739362094
 H       -10.8207603233        2.5478737596        1.7009702812
 H       -12.5806084169        4.0661259471       -0.3255407888
 H       -12.5180470959        2.4084032989        0.0637678396
 H       -11.2533635414        3.2808956842       -5.2804331371
 H        -9.5566850568        2.5743758717       -5.0046261498
 H        -9.4455467567        4.2410813599       -6.6007189289
 H        -8.6105377669        5.0384288847       -5.1995428649
 H       -12.3266561633        7.6128864278       -3.9753425270
 H       -12.3936096271        9.2461057901       -4.8521179195
 H       -12.5226496487        9.3246967326       -2.3819377915
 H       -11.4764310979       10.4668237705       -3.2418418990
 H        -7.1536327720       10.4338199562       -3.0803484173
 H        -6.7678961736        8.8854202491       -3.5614867430
 H        -6.1427961703        9.5371230212       -2.0956015772
 H       -10.1814230133       11.7999759326       -2.0134262954
 H        -9.4595783838       11.0440211936       -3.3705070370
 H        -8.3062022772       11.6806775460       -2.2147867645
 H        -9.8858902720        9.5396819336        0.6497027531
 H        -9.7450990758       11.2624156390        0.2044217385
 H        -8.4437997706       10.3636655447        0.5272528009
 H        -8.9916457632        6.5534057915       -7.6918457994
 H        -8.4063499546        7.3020193869       -6.2575895509
 H        -9.3426792617        8.2467510210       -7.5316986502
 H       -11.6000525963        6.6475726462       -7.9741830041
 H       -11.7815229061        8.2828598655       -7.5725437195
 H       -12.5131628766        7.0494337601       -6.5213761266
 H       -10.8303720324        0.5012345122       -3.2513987165
 H       -10.0905971123        0.6417998185       -1.7421598857
 H        -9.2035485460        1.2234058845       -3.1117316550
 H       -12.7426714267        3.4964853039       -3.0432905691
 H       -13.0794823739        2.2120451897       -1.8937034586
 H       -12.7454694671        1.9003199696       -3.5509145738
 H        -9.7838686107        3.0228356624        3.3697911675
 H       -10.2681593503        4.6921225996        3.9165006228
 H        -8.6343064252        4.0822237934        4.2218072516
 H        -8.2162673739        6.6343724198        1.3858156001
 H        -7.8338475395        6.3647066974        3.0828971230
 H        -9.5432464528        6.7938781953        2.6585531381
 H        -4.9197519789       -2.2560082185        2.8387845847
 H        -4.7750211524       -0.6986841117        3.5563645960
 H        -4.7727161756       -0.7946653566        1.7544481039
 H        -8.3682367032       -1.1609501845        1.1072651654
 H        -6.9825894476       -2.3884884694        0.9758729005
 H        -6.8290089713       -0.6330296720        0.4141845959
 H       -11.1342202090       -2.7504767053        7.1058285888
 H       -11.6726510822       -4.0366528131        6.2810565742
 H       -12.8557791379       -2.9860476564        7.2925647410
 H       -13.9667252517       -2.1427759160        3.8904537573
 H       -14.4085275673       -2.6710651216        5.6243988840
 H       -13.5695743755       -3.7509332659        4.5110251833
 Na       -9.0326396253        5.9042850118       -1.0523327934
