117

 C       -16.6279578787       -1.5442334668        7.3170893410
 C       -16.3467565266       -0.3005334009        6.4024972980
 O       -15.7783376983        0.6351637984        6.9359933942
 C       -16.4801261004       -0.3051154012        4.7571986758
 C       -15.0559943341       -0.8009292418        4.2288672198
 O       -14.1700419973       -1.3033725079        4.9716884494
 C       -14.5789734151       -0.3443097520        2.7863765693
 C       -13.0555400030       -0.6938698205        2.6396956799
 C       -12.1623373333        0.5013066476        2.8569971666
 O       -12.6594698345        1.5922614105        2.8713212528
 C       -10.3784377978        0.4551675219        3.0735095696
 C        -9.5673938090        1.0320397955        1.8242999190
 O        -9.8438288889        2.1011776542        1.4060571382
 C        -8.2773935594        0.2551128053        1.2560542943
 C        -7.7749235556        0.9429723568        0.0390183570
 C        -6.8147808213        2.1648967294        0.3228897825
 O        -7.2965592846        3.2768392835        0.4211990979
 C        -5.3577107066        2.0419346299        0.5881661700
 C        -4.5778680593        2.6164872007       -0.6680404128
 O        -3.5925950522        1.9765273497       -1.0465260624
 C        -5.2290356221        3.6815372824       -1.5604020516
 C        -4.1453448235        4.3876717939       -2.3830976438
 C        -4.7654103945        4.7101385856       -3.7245858894
 O        -5.4379480393        3.9572415428       -4.3225517519
 C        -4.1249670524        6.0226389621       -4.4479315096
 C        -5.2092811889        7.0904399623       -3.8576368522
 O        -5.1338801758        7.4769263772       -2.7213587463
 C        -6.5530745027        7.5735000392       -4.5726154301
 C        -7.6220265344        6.8912424112       -3.6484736445
 C        -9.0696116064        7.0649649392       -4.1268924190
 O        -9.5821678426        8.1095315564       -4.5435633060
 C        -9.7269655818        5.6273926652       -4.4402796923
 C       -10.0874366962        5.2035028025       -2.9795645318
 O        -9.4356304898        4.2943011189       -2.4425128504
 C       -11.3746750734        5.7577529740       -2.4305360576
 C       -11.6188688842        5.6434246725       -0.9770609203
 C       -10.6736867091        6.5282301542       -0.1425113723
 O        -9.6249680148        6.8386688860       -0.6894360219
 C       -11.2054792249        7.0833522804        1.1842293311
 C       -11.5092647366        5.8125968924        2.0300345466
 O       -10.9154316862        4.7922903365        1.5793483268
 C       -12.3063736297        5.8557720367        3.3458047932
 C       -10.1067435301        8.0480195607        1.7553205332
 C       -12.6655677545        7.9063322044        1.0754120076
 C       -11.0225884983        5.8935361556       -5.3942837059
 C        -8.9498508324        4.4771317083       -5.0362147473
 C        -2.7105722080        6.3715789397       -3.9631102363
 C        -4.4097265914        5.9324578446       -6.0558324922
 C        -4.9127206849        3.1035631582        1.6423665856
 C        -4.8775963893        0.6195723648        1.1083146148
 C       -10.0758828130        1.6167283450        4.1330117204
 C       -10.1009305470       -1.0401355007        3.4651396709
 C       -17.5406211200       -1.3099946352        4.2283211302
 C       -16.7481614372        1.0677361476        4.2086658775
 H       -16.5464582691       -1.3761109257        8.3398362124
 H       -15.7049213181       -2.2040221963        7.0935667710
 H       -17.5251015612       -2.0008975222        6.9504913860
 H       -14.6342658243        0.7042013807        2.6635286368
 H       -15.0117420614       -0.9066369405        2.0463590724
 H       -12.7797891658       -1.0842222960        1.6509879573
 H       -12.9729747320       -1.5502349701        3.2603034450
 H        -8.5043186367       -0.8038326780        1.0578528002
 H        -7.6863896231        0.4273538582        2.1581641514
 H        -8.5632777483        1.5338366360       -0.5051607555
 H        -7.4239245769        0.1816054999       -0.5764579702
 H        -5.7290588628        4.3238868636       -0.8327407509
 H        -5.9195086282        3.2639228810       -2.2032148059
 H        -3.2191662225        3.8767991280       -2.5232066153
 H        -3.8213079495        5.3905026485       -1.9283260432
 H        -6.5572997082        7.3114261899       -5.5519010381
 H        -6.5111711481        8.6308369747       -4.5958778020
 H        -7.5607807491        7.3906486705       -2.6377511863
 H        -7.4212166557        5.7981287472       -3.5771638882
 H       -12.1051377226        5.1581541842       -2.9602876660
 H       -11.4965969360        6.8075822903       -2.6337623255
 H       -11.2986535735        4.5218199594       -0.9137015548
 H       -12.6574132586        5.8542606105       -0.6768703432
 H       -13.1565091478        5.1939094596        3.2097611545
 H       -12.7456901059        6.8212288429        3.4826159707
 H       -11.6727695796        5.6787970998        4.1549483452
 H       -10.2628737579        8.4084714153        2.7666328311
 H        -9.7827130701        8.7391129593        0.9644253604
 H        -9.2604580960        7.4461682805        1.9471215244
 H       -13.5130020584        7.1934257816        0.8441883795
 H       -12.5518106899        8.7678932413        0.4119780656
 H       -12.8727139631        8.2769547845        2.0231433447
 H       -10.7791243784        5.8170619690       -6.4686908061
 H       -11.2879231084        6.8749791394       -5.2067875427
 H       -11.7280748200        5.2282804562       -5.0702187694
 H        -9.3111722667        3.9967093374       -5.9801819884
 H        -8.9373369476        3.6090700389       -4.3081917246
 H        -7.9156378091        4.7253086208       -5.1694607612
 H        -2.1300702370        5.4737957802       -3.7928572578
 H        -2.7003240508        6.8076634126       -3.0138481616
 H        -2.2122215942        6.8995413393       -4.8520438842
 H        -4.9559154705        6.7981253797       -6.3988179212
 H        -4.7838194878        4.9493531468       -6.3817094928
 H        -3.3429411029        6.0115849877       -6.4542204175
 H        -3.8549462725        3.0258883951        1.9413631752
 H        -5.4916819105        2.9842682056        2.5465455273
 H        -5.0748247794        4.0635486739        1.3019309004
 H        -5.4920634180        0.2608517923        1.9939309319
 H        -3.8249812228        0.8160422609        1.5030587251
 H        -4.9341542776       -0.1473515423        0.3220025703
 H       -10.6160249927        2.6496018823        3.9047775287
 H        -8.9728235535        1.8106002861        4.2471536511
 H       -10.4661745675        1.2635422760        5.0837637302
 H       -10.8880709705       -1.6679975698        3.7551179314
 H        -9.5804353595       -1.0529546198        4.3376958458
 H        -9.5107414710       -1.4483701426        2.6820197557
 H       -18.3063998395       -1.3691354465        4.9260876664
 H       -17.3078137156       -2.2772832666        3.8907159794
 H       -18.0512579518       -0.8924842408        3.3612956491
 H       -16.3088200723        1.0605594422        3.1808301498
 H       -16.3798037973        1.8538208242        4.9236216284
 H       -17.8544093246        1.1750943967        4.2690226552
 Na       -9.2028705849        3.8788813660       -0.3195065122
