117

 C       -16.4959518454       -1.3484020995        7.3317981947
 C       -16.1008123833       -0.0551098348        6.5884095001
 O       -15.5721591136        0.8801058438        7.1294665467
 C       -16.2209797133       -0.0801235250        4.9360641701
 C       -14.8490800387       -0.2947971672        4.3150903485
 O       -14.0810002248       -1.0864597860        4.9015123380
 C       -14.5090570931        0.2901635151        2.9131647572
 C       -12.9820961244       -0.0621053952        2.6146644117
 C       -12.0645840622        0.9988892787        3.2462600173
 O       -12.5284034254        2.1176509988        3.3346403351
 C       -10.5395782135        0.8236609579        3.1731512419
 C       -10.0133115826        1.1334586229        1.7573984025
 O       -10.7363581423        1.7424959403        0.9967196204
 C        -8.6670442370        0.5082130981        1.3283275223
 C        -7.9205773100        0.9623816238        0.0625671784
 C        -6.9219558971        2.2080851783        0.5527682225
 O        -7.5054980001        3.2722596695        0.6476668225
 C        -5.3765038189        2.0381715040        0.9047833001
 C        -4.5330247448        2.4148933946       -0.5219586811
 O        -3.4847416348        1.9890967908       -0.7315393506
 C        -4.9675782523        3.6434196296       -1.4320780006
 C        -3.8002371954        4.0100050204       -2.4889881197
 C        -4.4220704110        4.5057744876       -3.9307028066
 O        -5.4591454930        4.0202908244       -4.3133239435
 C        -3.9854852727        5.7685253484       -4.6955690541
 C        -5.1142344551        6.7749695398       -3.9394261437
 O        -4.7909166767        7.1689263467       -2.8258018589
 C        -6.5700556881        6.9581294779       -4.5586613370
 C        -7.7892778075        6.9511926352       -3.5251297990
 C        -9.0431849374        6.8270976192       -4.3790749848
 O        -9.4434845902        7.7808083895       -5.0725091249
 C        -9.6560800078        5.3786695855       -4.5660015572
 C       -10.2871559812        5.0640127759       -3.1130918341
 O        -9.5337864904        4.4218665837       -2.3235275115
 C       -11.7392796740        5.3644763870       -2.8040017690
 C       -12.0701684487        5.6487976130       -1.3656449262
 C       -11.0658787997        6.5283534375       -0.5101826899
 O       -10.0424389261        6.9252215623       -1.0338668107
 C       -11.3987396902        7.0373626718        0.9525851809
 C       -11.2942328334        5.8557065082        2.0320823305
 O       -10.5198653839        4.8500885795        2.0320894211
 C       -11.9347791512        6.1319378706        3.3423484134
 C       -10.1683529664        7.8665719357        1.4533336277
 C       -12.7450672430        7.6578705099        0.8783806024
 C       -10.9090190819        5.4968840216       -5.5898861540
 C        -8.5735750143        4.2466117737       -4.8559526797
 C        -2.4670004650        6.0300645858       -4.4051443225
 C        -4.0694410967        5.3803866032       -6.1581680511
 C        -4.8358987089        3.0558137152        2.0636202449
 C        -4.9763771173        0.5759313859        1.1855141139
 C        -9.7107412821        1.8395214233        4.1103806593
 C       -10.2660509499       -0.6597609032        3.5453030383
 C       -16.9581189360       -1.3429471513        4.3608470625
 C       -16.9269845914        1.2351171235        4.2409374763
 H       -16.2273174087       -1.0201137398        8.3939564995
 H       -15.9643118864       -2.2830608376        7.0479116435
 H       -17.5798379705       -1.4557600200        7.2507480481
 H       -14.5668706978        1.3844647950        2.9898041179
 H       -15.1012680769       -0.1588070135        2.2275652915
 H       -12.7098945768       -0.2071471482        1.5287911976
 H       -12.7078206815       -1.0227698130        2.9980880336
 H        -9.0814920766       -0.5108393030        1.2455493280
 H        -8.1330478862        0.5400896537        2.3229865345
 H        -8.6749536940        1.4223822922       -0.6574913000
 H        -7.5758948547        0.1059734084       -0.4483857890
 H        -5.2531124648        4.4894316065       -0.8624302327
 H        -5.7654204350        3.3697365009       -1.9390714565
 H        -3.4253668461        3.0772116243       -2.7983631785
 H        -2.8819392387        4.4956651010       -2.0495440528
 H        -6.5890524141        6.2132341553       -5.2644203260
 H        -6.5981527842        7.8887168326       -4.9865208850
 H        -7.8083615144        7.9774810744       -3.0253910290
 H        -7.7962678984        6.1399368187       -2.7319114857
 H       -12.4507520945        4.5924640956       -3.0245972954
 H       -12.1340764390        6.2773713182       -3.2159375699
 H       -12.1404967747        4.5945235669       -0.9280918753
 H       -13.1367448542        6.0108731903       -1.4868259966
 H       -12.7742199672        6.7900047505        3.2697632919
 H       -11.1733147322        6.8053376537        3.8735134588
 H       -12.1576722446        5.2124309705        3.8739537625
 H        -9.8354100173        7.5286895177        2.4197140142
 H       -10.5304612429        8.9254959106        1.5444118386
 H        -9.3256582773        7.9033906399        0.8747730050
 H       -13.4176292556        6.7814365876        0.8328175368
 H       -12.7056444448        8.3913669095        0.1169144531
 H       -13.0854250022        8.1492785239        1.7976782026
 H       -10.6714974050        5.9089262489       -6.4784172889
 H       -11.4804807466        6.1875729987       -5.1414205143
 H       -11.2750130024        4.4911080992       -5.8005558486
 H        -9.0105644364        3.2709575408       -4.5366679428
 H        -7.4797133609        4.3909442774       -4.7672877688
 H        -8.5901470089        4.1890844388       -5.9192239263
 H        -2.2080112352        6.2564837582       -3.3648937592
 H        -2.2245861835        6.9055076285       -4.9029356802
 H        -1.8228403604        5.1244035794       -4.6208585058
 H        -3.4166237359        5.8090535681       -6.8132745624
 H        -5.0696419129        5.5207844713       -6.3457445583
 H        -4.1979240133        4.3073705364       -6.1973223426
 H        -3.7458109573        3.0426396371        2.0859858428
 H        -5.0883761060        2.6194813964        2.9967183905
 H        -5.1779430462        4.0225289189        2.0437900099
 H        -5.2198860536        0.1501788533        2.1076717300
 H        -3.8768831063        0.7077651070        1.0182346192
 H        -5.2646494353       -0.1031002124        0.4043584661
 H       -10.0863166285        2.8587325548        4.0254299911
 H        -8.6302858728        1.8593215733        3.7938203473
 H        -9.9176118006        1.4356418583        5.0985119221
 H       -10.1816737991       -0.9448122111        4.6439355226
 H        -9.3361802979       -0.9309512510        2.9954057216
 H       -11.0354412570       -1.2910613868        3.1798471611
 H       -17.9570133500       -1.5436319755        4.7412129533
 H       -16.3430409881       -2.1770376383        4.6443959038
 H       -17.0366377616       -1.4332780151        3.2509480916
 H       -17.7002839026        0.7508044097        3.6692111270
 H       -16.1369836083        1.5925419774        3.5088514080
 H       -17.3237409274        1.9209121762        4.8894014864
 Na       -9.9673019191        3.9539127430       -0.0071486400
