117

 C       -16.4349026035       -1.2450635831        7.4208339876
 C       -16.0505359904       -0.0408884821        6.4755594338
 O       -15.5891479439        0.9188601724        7.0034193568
 C       -16.1723187106       -0.0645817672        4.8652823470
 C       -14.7577074542       -0.2297564295        4.3326657232
 O       -14.0445322678       -0.9425712177        4.9357705872
 C       -14.4382312514        0.4651501049        3.0442581945
 C       -12.9672356416        0.1339647013        2.6437644282
 C       -12.0817307300        1.3181749017        3.1419721186
 O       -12.5011023321        2.3810352111        3.5474828180
 C       -10.5293870528        0.8640377499        3.1423043613
 C       -10.1428902008        1.1182683986        1.6349948090
 O       -10.7606772610        1.7804831810        0.7734843186
 C        -8.6067621241        0.5826382609        1.4485509443
 C        -7.8737112513        1.1113364713        0.2011574426
 C        -7.0555826838        2.2320168632        0.6321241250
 O        -7.5654255802        3.3584544771        0.8121616326
 C        -5.4885763584        2.0371280440        0.7857932917
 C        -4.4487375596        2.5587847240       -0.4168200515
 O        -3.5240584941        1.8344500579       -0.5188589206
 C        -4.9520253622        3.5974074367       -1.5075942423
 C        -3.8254497322        3.8579726322       -2.5708248901
 C        -4.5819729645        4.3398058579       -3.8076821135
 O        -5.4811596558        3.6513234715       -4.2560458734
 C        -4.0910492987        5.5981625189       -4.5984187610
 C        -4.9457719208        6.7179082743       -3.9563646928
 O        -4.6849244810        7.3561538679       -2.9626510905
 C        -6.3645997194        6.8201276275       -4.5827772127
 C        -7.5634055643        6.9495648403       -3.6514734299
 C        -8.8905797458        6.7988994448       -4.4797607944
 O        -9.3954479838        7.6456877313       -5.0726942818
 C        -9.6973074813        5.2246769586       -4.4999818260
 C       -10.3193645046        5.0162818998       -3.1091731855
 O        -9.7154658258        4.3392535047       -2.2662205301
 C       -11.7396080927        5.4365662486       -2.8788110720
 C       -12.1055426624        5.6284835498       -1.3083535912
 C       -11.0378945333        6.4102548990       -0.6140776584
 O       -10.1492193479        6.9637913152       -1.2106421082
 C       -11.3778671134        6.8878094074        0.9186651436
 C       -11.1832639923        5.8102828070        2.1094250124
 O       -10.4662802669        4.8678580405        1.9800238295
 C       -11.9300271552        6.1867729091        3.4346266391
 C       -10.2760035694        7.9829670699        1.2868250318
 C       -12.7666464084        7.6108711985        0.8179202658
 C       -10.7946003631        5.3557892665       -5.6156709965
 C        -8.7403248366        4.0797168099       -4.6219098359
 C        -2.5028683301        6.1344252404       -4.3737478506
 C        -4.2486933667        5.4471305718       -6.1897660546
 C        -5.1004842142        2.9180006599        1.9338500461
 C        -5.1767703534        0.5673961077        1.1807675197
 C        -9.6199170063        1.7389206895        3.9707557964
 C       -10.3103259417       -0.6403014255        3.6705878775
 C       -16.8479991923       -1.4238294700        4.4393538961
 C       -16.7986663527        1.2946559759        4.3399781702
 H       -16.2875870670       -0.8534352895        8.5034677571
 H       -15.6897462239       -1.9265846864        7.1907043567
 H       -17.4102909534       -1.7351592840        7.2649350912
 H       -14.5288717042        1.5244791941        3.1349973681
 H       -15.0647606681       -0.0390015288        2.3320968289
 H       -12.8164909241       -0.1771107954        1.6070494813
 H       -12.7057233291       -0.7411760771        3.2026434970
 H        -8.7027814834       -0.4561119035        1.5714297774
 H        -8.2643534236        0.9393310845        2.4578809309
 H        -8.6187784011        1.4125285839       -0.4852670776
 H        -7.2677586590        0.3828629468       -0.3663675362
 H        -5.0504822177        4.5385668158       -1.0159963071
 H        -5.9595136144        3.2994387064       -1.8367689553
 H        -3.2576059388        2.9017496946       -2.8573372144
 H        -3.0771079657        4.5206915899       -2.1910409146
 H        -6.4311889438        5.7982140727       -5.0728915240
 H        -6.3462522647        7.6629699910       -5.3009309435
 H        -7.7211392428        7.9536053243       -3.2212314492
 H        -7.4633742418        6.2332111471       -2.8092837936
 H       -12.5217769401        4.7490398915       -3.1397961508
 H       -12.0965166345        6.4023517160       -3.2655956055
 H       -12.2364284687        4.6408500767       -0.8866940037
 H       -13.1905366264        6.0527410511       -1.4358306924
 H       -12.5212693311        7.0173390402        3.3060484454
 H       -11.2093365853        6.5835015127        4.1234355321
 H       -12.5514915804        5.3694348874        3.8257925666
 H        -9.7539884160        7.9021986197        2.2267380127
 H       -10.8360894919        8.9235761626        1.2743893223
 H        -9.4911890473        8.1068213025        0.5384301777
 H       -13.5539386715        6.9292464724        0.8873889183
 H       -12.7225509254        8.2901780816        0.0045889223
 H       -12.8619295898        8.2333771357        1.7852995344
 H       -10.4092588552        5.2929795007       -6.6044438178
 H       -11.2967464857        6.3955854917       -5.4898684784
 H       -11.2935067376        4.3971729788       -5.5382382322
 H        -9.1910199978        3.1118499286       -4.4406810144
 H        -7.8103480066        4.3024897622       -4.1257962262
 H        -8.2929536867        4.1584240857       -5.6645006161
 H        -2.3365333244        6.8942061109       -3.5659631664
 H        -1.9980494192        6.4798753549       -5.2858139017
 H        -2.0473346817        5.3366828546       -3.9020074805
 H        -3.5893896766        6.1518024931       -6.7040955824
 H        -5.3077014773        5.6006233221       -6.3804316402
 H        -4.2077163967        4.4404592015       -6.5144644172
 H        -4.0603755902        2.9150377992        1.9829160938
 H        -5.4338508784        2.5983501885        2.8611321465
 H        -5.4241685877        3.9618596595        1.8040833906
 H        -5.5551609924        0.4144611971        2.2052033237
 H        -4.1005355973        0.3742982351        1.1046970425
 H        -5.6677918456       -0.2544947941        0.5183972462
 H       -10.1491480263        2.6569597748        3.9720823492
 H        -8.6392823988        2.0497750993        3.4829496615
 H        -9.5954112859        1.3359368980        5.0632598675
 H       -10.4922232252       -0.6960353453        4.6809047647
 H        -9.3598840816       -1.0236288316        3.3971788705
 H       -11.0041399141       -1.3291249902        3.2925621722
 H       -17.6700753999       -1.8317117812        5.0410666754
 H       -16.0592817275       -2.1236650364        4.6405528187
 H       -17.1483904825       -1.5435387855        3.4427065070
 H       -17.6946720792        1.0685777050        3.6997911731
 H       -15.9849022250        1.7749771460        3.8098370818
 H       -17.1741218014        1.8259330708        5.2221052201
 Na       -9.8784839674        3.9155540974       -0.1297305390
