117

 C       -16.3511243508       -1.1479919735        7.3597998235
 C       -15.9908838823        0.0087032675        6.4631139207
 O       -15.5990611938        1.1235417417        6.8576305229
 C       -16.1885979130       -0.1099741467        5.0049632731
 C       -14.6663766628       -0.1793724479        4.4619060801
 O       -13.7751645595       -0.8413038913        4.9169775232
 C       -14.4531961727        0.6331358435        3.0226648342
 C       -13.0006568175        0.3727446149        2.6729679271
 C       -12.0712213458        1.4029464616        3.1815733050
 O       -12.2911749416        2.4926118030        3.6692909929
 C       -10.5104782576        0.9745997375        3.0696370030
 C        -9.9950209915        1.1023054668        1.6793339480
 O       -10.5742917767        1.6704555309        0.7917864467
 C        -8.6162370124        0.5086506513        1.3211495996
 C        -8.0206905907        1.2013815184        0.0769931397
 C        -7.1731878102        2.3944654504        0.4420047226
 O        -7.5676793166        3.4889417551        0.8603211162
 C        -5.5933967644        2.1197878757        0.8050360548
 C        -4.6225028762        2.3293844418       -0.4583285362
 O        -3.4515142654        1.8124591089       -0.3996508365
 C        -4.8982083447        3.4712722868       -1.3699846129
 C        -3.8577056487        3.7294703668       -2.4810632978
 C        -4.5070495636        4.1002831179       -3.8612960630
 O        -5.4961527681        3.5058143287       -4.2882342382
 C        -4.1228385319        5.4808607460       -4.5424219885
 C        -4.9739710549        6.6635025938       -3.9479319222
 O        -4.5681959879        7.4716596073       -3.1738352640
 C        -6.4281461267        6.6451897914       -4.7217030158
 C        -7.5000463224        6.8913230104       -3.7574934022
 C        -8.8504241313        6.6245171407       -4.4217168779
 O        -9.3444210323        7.5223526421       -5.0981151716
 C        -9.6370958863        5.2044242181       -4.3856258604
 C       -10.4214489749        4.9887937601       -3.0550433280
 O        -9.8421186600        4.2893718976       -2.2276429829
 C       -11.8231059565        5.5630213993       -2.8842657823
 C       -12.1978341913        5.5193245464       -1.1875055858
 C       -11.1060419283        6.4512461157       -0.6373345068
 O       -10.2055105315        6.8984569919       -1.3436609760
 C       -11.3172742397        6.9556997583        0.8669095835
 C       -11.1757407320        5.9230032295        2.0021141048
 O       -10.5427460380        4.9078954546        1.8815218497
 C       -11.8070766650        6.1151940143        3.3933223075
 C       -10.3345249114        8.1467706705        1.1533780918
 C       -12.7752674516        7.4888724282        0.8707778433
 C       -10.5649501471        5.2174399966       -5.5838778717
 C        -8.7407322451        3.9701111570       -4.6366014578
 C        -2.6283216453        6.0206971126       -4.3171757293
 C        -4.3030103096        5.5131529399       -6.0982127575
 C        -5.2282447290        2.9910033308        2.0109008952
 C        -5.3678446005        0.6522426445        1.1428426760
 C        -9.7193570780        1.9094652882        4.0116672022
 C       -10.3136345338       -0.4269256991        3.6614633831
 C       -16.9535926197       -1.3660670939        4.4846397920
 C       -17.0205079292        1.1824756118        4.6102129922
 H       -16.5908581808       -0.9897049523        8.3478947646
 H       -15.5175077666       -1.8393762659        7.1197407418
 H       -17.1684314497       -1.6387005815        6.8268331653
 H       -14.5579558795        1.7078660709        3.2748063584
 H       -15.0504006495        0.0952452791        2.1292619720
 H       -12.8479804557        0.5192729704        1.6226682388
 H       -12.8023632216       -0.7176903722        2.8423899229
 H        -8.8622587926       -0.5333920444        1.1255981814
 H        -8.1248753003        0.4961380810        2.2158061203
 H        -8.7809853578        1.2650838884       -0.6643668998
 H        -7.2944620818        0.4567776159       -0.3650388577
 H        -5.1195743293        4.3419052502       -0.6637728002
 H        -5.9926709916        3.1681722303       -1.8535817779
 H        -3.1534197460        2.8062850461       -2.3584834267
 H        -3.2076069920        4.5520494682       -2.2495216238
 H        -6.5209286969        5.5710222421       -5.1681856085
 H        -6.3195388071        7.4987188606       -5.5235790652
 H        -7.5898975282        7.8736437873       -3.3814954473
 H        -7.2602126438        6.2657667932       -2.9247824254
 H       -12.6627614745        5.0490541682       -3.4108572087
 H       -11.9799417575        6.6100773628       -3.1401527175
 H       -12.1900765319        4.5164664756       -0.8034706278
 H       -13.1987304663        5.8411008532       -1.0841371243
 H       -12.3580543076        7.0663294773        3.6233102248
 H       -11.0698928656        6.1017746550        4.1177399621
 H       -12.5342146327        5.3141489854        3.4443195324
 H        -9.7992995576        8.1938490978        2.1412338015
 H       -10.8459981824        9.0735054417        1.0690120159
 H        -9.5031760915        8.1096638687        0.3623262468
 H       -13.5318232483        6.7239148379        1.0045383617
 H       -12.8741240825        8.1039081105       -0.0670980427
 H       -12.8470642211        8.1414736785        1.6909936590
 H        -9.9129760946        4.5969618099       -6.4024082315
 H       -10.8259072178        6.2384791458       -6.0309012249
 H       -11.2424148287        4.3930019883       -5.4382905088
 H        -9.3885218723        3.1255546709       -4.8078475758
 H        -8.1483643195        3.8880929066       -3.7599173189
 H        -7.9267057572        4.0490279062       -5.3878876398
 H        -2.5568677521        6.9832884787       -3.8635225561
 H        -1.8324006174        5.9263037423       -5.1224360270
 H        -2.4163087839        5.4584527318       -3.3989510864
 H        -3.8045995699        6.4815972367       -6.4696839857
 H        -5.3648779130        5.2892164082       -6.4070891847
 H        -3.7804700392        4.6517165736       -6.5074793750
 H        -4.1881051050        2.8480392169        2.2297336331
 H        -5.8079250305        2.7907102071        2.9262484266
 H        -5.3530246914        4.0705161100        1.7888670244
 H        -6.0198968974        0.4184283064        2.0798898916
 H        -4.3190578562        0.4131467098        1.3183962256
 H        -5.7108792355       -0.0437793109        0.3572642860
 H       -10.3249211828        2.8793147179        4.0941986084
 H        -8.8594034799        2.2538192163        3.4736547757
 H        -9.5382692513        1.4478538989        4.9757572396
 H       -11.1079224693       -0.5195455130        4.3416902238
 H        -9.3534398020       -0.6128034765        3.9649544779
 H       -10.5539224630       -1.2847971693        3.0184483496
 H       -17.9170937215       -1.5783530355        4.9115333920
 H       -16.4366302472       -2.3189915247        4.6686446025
 H       -17.1069085532       -1.2155275758        3.4445905958
 H       -17.8243359362        1.1024204550        3.8684088728
 H       -16.2705541173        1.8445227594        4.4228025565
 H       -17.5419411064        1.3896812703        5.6226436532
 Na       -9.6878842304        3.7796884636       -0.0752352993
