117

 C       -15.9703162423       -1.0844882997        7.5751484886
 C       -15.9408168829        0.1354995495        6.7088715057
 O       -15.6019559045        1.2682890505        7.0809701573
 C       -16.1634467803        0.0697855333        5.0113555896
 C       -14.7654804401        0.2276045270        4.3242441511
 O       -13.8507591896       -0.4188790537        4.7116140121
 C       -14.5449447181        1.1980402256        3.0818820690
 C       -13.1094075226        0.9676729826        2.5052102050
 C       -11.9743698965        1.7381100859        3.1528105212
 O       -12.1397728247        2.7034882513        3.8323083255
 C       -10.4603389023        1.1560212106        3.1166871051
 C       -10.1652006286        1.3676069524        1.5038207759
 O       -10.8408332600        2.1952428561        0.8642122427
 C        -8.8903716659        0.4665466711        0.9521471372
 C        -7.9019588671        1.2321867444        0.0186245403
 C        -7.0612080377        2.2690944124        0.5319339896
 O        -7.4117957925        3.4792400549        0.2654590000
 C        -5.6458522533        2.0677663515        0.9939603995
 C        -4.7212884665        2.2159538398       -0.3687508119
 O        -3.5153497167        1.8236745194       -0.3349381428
 C        -5.2453303280        3.1583788495       -1.4690372225
 C        -4.0617063056        3.7273912976       -2.3893245123
 C        -4.5723058227        3.9632285710       -3.7959039377
 O        -5.4293651119        3.2951631239       -4.3717598826
 C        -3.8926159787        5.2680378672       -4.5490559636
 C        -4.9396615711        6.5301958321       -4.1791674709
 O        -4.6077663534        7.5045284786       -3.5998519507
 C        -6.4313575970        6.2902055006       -4.7401139714
 C        -7.5377943028        6.3264044958       -3.6248939304
 C        -8.9516986439        6.2723471388       -4.3167979842
 O        -9.4632103279        7.2313440338       -4.8476485786
 C        -9.6971007651        4.8648333330       -4.3310898832
 C       -10.3936311175        4.6944539103       -2.9588017092
 O        -9.9437915182        3.9030204723       -2.1276708127
 C       -11.8321425863        5.3385244487       -2.8920602617
 C       -12.2300719724        5.8711484424       -1.4807723186
 C       -11.1544439176        6.6348217828       -0.6874394598
 O       -10.0607056095        6.8244900768       -1.1761060530
 C       -11.5603908949        7.2061262683        0.7265451368
 C       -11.2012366450        5.9614294530        1.7064317883
 O       -10.5802415884        5.0235863587        1.3573996143
 C       -11.4232537074        6.0978039880        3.2153398058
 C       -10.6747823778        8.4748567203        1.1140166361
 C       -13.1260140723        7.6824051449        0.9969880273
 C       -10.6737516342        4.6991403559       -5.5460411993
 C        -8.6103740076        3.6931193533       -4.4467652617
 C        -2.5915896289        5.7264349128       -3.9656141082
 C        -3.8640181945        4.8568154102       -5.9443083726
 C        -5.2647749290        3.0921264419        2.1468112944
 C        -5.2674113973        0.6706742066        1.6229147780
 C        -9.4806909058        2.2072925218        3.8042304999
 C       -10.1852040810       -0.2233969957        3.8502776071
 C       -16.5335063278       -1.3400605163        4.7895923086
 C       -17.1335692689        1.2399990182        4.5407680690
 H       -15.8115470168       -0.6807920257        8.5650930801
 H       -15.2644548409       -1.7572956648        7.1045565720
 H       -16.9572975938       -1.6438576812        7.7182794700
 H       -14.5271264645        2.1661851934        3.3777275443
 H       -15.3456993932        0.8854241581        2.4046986490
 H       -13.1579988841        1.5437450280        1.5591312352
 H       -12.6566300011        0.0246117680        2.1512283994
 H        -9.4071529283       -0.3606985817        0.4028587654
 H        -8.3986863104       -0.1054428576        1.7678078858
 H        -8.3593859176        1.5766272560       -0.8661194146
 H        -7.3790075506        0.3226567896       -0.3476436586
 H        -5.7067810013        3.9083265101       -1.0004117078
 H        -5.8354824150        2.5515038591       -2.0895281039
 H        -3.5164792747        2.7943231432       -2.7118336832
 H        -3.3680572385        4.3847527476       -2.0310951444
 H        -6.2349386323        5.3214756190       -5.1731319041
 H        -6.6134617609        7.1103831416       -5.4184943671
 H        -7.4447963466        7.2949759619       -3.0667979695
 H        -7.3676220052        5.5871930641       -2.8080064740
 H       -12.5599403566        4.6893603063       -3.3590649960
 H       -11.9375064854        6.2403818517       -3.5032441990
 H       -12.5833887748        4.9083513835       -1.0461887797
 H       -13.2325239107        6.4858458412       -1.3923420655
 H       -10.8055159761        6.9146146174        3.6457202454
 H       -10.9649024358        5.2741029749        3.6419921121
 H       -12.4551344550        6.3902557446        3.5451781746
 H       -11.0509881425        9.1316704733        1.8517001089
 H       -10.5014089973        9.1296839999        0.3285795688
 H        -9.6794789190        8.0404561210        1.3554866418
 H       -13.8112929517        6.8610378706        0.8559732843
 H       -13.5374849822        8.5326913158        0.4243113101
 H       -13.0055843186        7.8918645471        2.0806865763
 H       -10.0565407305        4.7073472581       -6.5299237212
 H       -11.3913505018        5.4472209445       -5.6648096642
 H       -10.9648548493        3.7568449584       -5.4390406493
 H        -8.9377294420        2.6482992840       -4.3517284897
 H        -7.7655406009        3.9164629898       -3.7938868054
 H        -8.1837780735        3.7830953257       -5.5353764465
 H        -1.8110809059        5.5788933404       -4.7240852433
 H        -2.2813708323        5.1421204223       -3.0968230855
 H        -2.4994091174        6.7797225877       -3.8052798286
 H        -4.8272251269        4.9327821663       -6.4518556201
 H        -3.3957792138        3.9070106697       -6.1161187306
 H        -3.2846491068        5.5852860583       -6.3451399242
 H        -4.3328105387        2.9526972257        2.5734608881
 H        -6.0271682207        2.9870082401        2.8779369136
 H        -5.3093497251        4.1704938903        1.8374845071
 H        -5.4891344686        0.6394527512        2.7157895063
 H        -4.2666430384        0.4346846799        1.5455900847
 H        -5.8633424828       -0.1075264299        1.1463955075
 H        -9.3759455225        3.1125143714        3.1840536527
 H        -8.4828697019        1.7916372417        4.0338689559
 H        -9.9415283029        2.3934694226        4.7989946148
 H       -11.0061723816       -0.6854592471        4.3609648891
 H        -9.2810925396       -0.0564768055        4.3762690049
 H        -9.7934179514       -1.0485964490        3.1742703384
 H       -17.4307675981       -1.6822692559        5.3560771017
 H       -15.8429030842       -2.0286952653        5.2876125304
 H       -16.6514378433       -1.5907251094        3.7535121509
 H       -16.5458080612        1.6850748515        3.7371585563
 H       -17.3434907205        1.9063967883        5.2941371313
 H       -18.0247972739        0.8012573696        3.9255082699
 Na       -9.7104582193        3.6183184597       -0.1109467582
