117

 C       -15.1120162467       -0.6168544173        7.4902823866
 C       -15.5825877694        0.6395106949        6.6831066180
 O       -15.6930346476        1.7712846503        7.0575601350
 C       -15.9034842403        0.2501034212        5.1836661741
 C       -14.4886072439        0.6414781148        4.3940149728
 O       -13.4538202226        0.0340580492        4.6387992792
 C       -14.3753211225        1.9952260080        3.5425706138
 C       -13.1663653093        2.1675459639        2.5522425238
 C       -11.9243287108        2.5169552161        3.3603354300
 O       -11.8170876327        3.4741076857        4.1460300970
 C       -10.6118124544        1.5567902793        3.0773353878
 C       -10.1325121326        1.2904566595        1.5584934645
 O       -10.4982525444        1.9463552294        0.6592913973
 C        -8.8394894262        0.3181696392        1.2801564763
 C        -7.9487176293        0.8753518260        0.1135494814
 C        -7.2427787085        2.1173963764        0.6821853180
 O        -7.9634532272        3.0646410999        0.9577893869
 C        -5.7425356592        2.1206521794        1.0628790934
 C        -4.6577238776        1.9162293101       -0.2351141897
 O        -3.6169487880        1.5128685047       -0.0404186381
 C        -5.3151817500        2.4507710376       -1.5693977933
 C        -4.1802175384        3.4666774411       -2.2517715923
 C        -4.4903148675        3.7914912998       -3.6607194023
 O        -5.4441253639        3.1749417215       -4.1371990690
 C        -3.8432484463        5.0496108409       -4.4451993820
 C        -4.9347038714        6.0237420133       -4.6002139648
 O        -4.9121376069        7.1421533371       -4.0804398450
 C        -6.3264164306        5.7018208677       -5.0921316847
 C        -7.2264567740        5.5426777051       -3.9155881219
 C        -8.6895965681        5.6754321099       -4.4497881795
 O        -9.2750557918        6.7524151746       -4.6785382332
 C        -9.6150396814        4.3896474610       -4.5725277186
 C       -10.5996527601        4.5013314740       -3.3787484106
 O       -10.5045728851        3.6064740676       -2.5430251279
 C       -11.6413411313        5.5510951477       -2.9960602888
 C       -12.0378350409        5.5555000901       -1.4502780570
 C       -11.0536510443        6.4435164284       -0.6854865206
 O        -9.9013472637        6.6043030528       -1.0542918059
 C       -11.5078834322        7.2591369529        0.5656990201
 C       -11.2408224573        6.3972302522        1.9135299803
 O       -10.7794215520        5.2257507734        1.7801565385
 C       -11.6948526258        6.9892035995        3.2990057925
 C       -10.9034285553        8.6736040130        0.6221337628
 C       -13.0972866216        7.2516639792        0.5080481392
 C       -10.4598120390        4.4897442938       -5.9038697466
 C        -8.9400060808        3.1056872009       -4.6228356924
 C        -2.6294485666        5.7798493837       -3.9651075142
 C        -3.5295525496        4.2842752628       -5.8681584586
 C        -5.4590828948        3.4014752232        1.9697376576
 C        -5.6895885286        0.8162329817        1.8896324230
 C        -9.4374639183        2.3697171625        3.7112065478
 C       -10.8708393343        0.2055694211        3.7332985393
 C       -16.2346736565       -1.2368260957        4.9555301214
 C       -17.1349709875        0.9079553467        4.7413108652
 H       -14.7824315994       -0.1914601417        8.4676740939
 H       -14.3116782608       -1.1862006317        6.9208801700
 H       -15.9237246085       -1.2719373375        7.8153137004
 H       -14.6829625070        2.6178222135        4.4226313760
 H       -15.3027232874        1.8688886045        3.0258545892
 H       -13.2850330360        2.9978534308        1.8504623740
 H       -12.8786538913        1.3899787426        1.8250262923
 H        -9.2197079738       -0.7333156042        1.2105199574
 H        -8.3963543515        0.4165117904        2.2155488701
 H        -8.7378925624        1.0835175838       -0.6323863131
 H        -7.3007077148        0.1623580205       -0.3928133281
 H        -6.3401749607        2.8522689141       -1.3814798362
 H        -5.2956912781        1.6657425358       -2.2447286263
 H        -3.2996713473        2.8720487608       -2.0871475103
 H        -4.0792620251        4.4494136721       -1.7278594473
 H        -6.5742503945        4.7318222233       -5.6839252608
 H        -6.7071510811        6.5884986384       -5.7588500143
 H        -7.1780180885        6.4076134701       -3.2535531777
 H        -7.1536061947        4.6151242149       -3.3375056146
 H       -12.6191514554        5.4036224119       -3.5276807298
 H       -11.5275783911        6.5711129111       -3.3297048930
 H       -12.1336771848        4.4750834591       -0.9615987582
 H       -13.0538336873        5.9202984165       -1.5162336153
 H       -11.4795912811        6.3215389655        4.1239644589
 H       -12.8220763115        6.9376523560        3.3352903914
 H       -11.2501578702        7.9342184313        3.4578280936
 H       -11.6191242603        9.4525600474        0.8318914083
 H       -10.5155058399        8.9562523586       -0.3703081485
 H       -10.0368336976        8.7518770940        1.2211804935
 H       -13.6439163412        6.2675198522        0.5836938621
 H       -13.4694639062        7.7106604721       -0.4329498544
 H       -13.3972113963        7.9197352323        1.2815157671
 H        -9.9845369976        4.0625389082       -6.6747083276
 H       -10.9059874178        5.4995435220       -6.0798178768
 H       -11.4117242066        3.9773736243       -5.5246609002
 H        -9.4687421163        2.3123917766       -5.2079981518
 H        -9.1363957073        2.7772198590       -3.5520357114
 H        -7.9730861491        3.1116501855       -5.0181130866
 H        -3.1429548444        6.0467745164       -3.0712783169
 H        -2.3709491958        6.6505060441       -4.5633147064
 H        -1.7263635511        5.3504453344       -3.5684172569
 H        -2.5414458405        4.0661225720       -6.0810236327
 H        -3.9209051189        4.8053021962       -6.6865580018
 H        -4.2813003639        3.4935506440       -5.8955122938
 H        -4.6031630584        3.1467287492        2.6508635522
 H        -6.3366583727        3.6495209755        2.5878737464
 H        -5.1812958377        4.2477261224        1.4257938754
 H        -6.4137202189        0.8698655880        2.6464058363
 H        -4.7266367797        0.8040770582        2.4525388874
 H        -5.7623783403       -0.0579583173        1.3345188527
 H        -9.6135035441        3.3654897648        3.2604837107
 H        -8.4693919429        1.8902096915        3.5435113498
 H        -9.5385228494        2.5233914844        4.7738843115
 H       -10.7765498033        0.1923443667        4.8299419912
 H       -10.1087633062       -0.5423362835        3.4962178673
 H       -11.7089832082       -0.1175901149        3.2563968458
 H       -17.2550289594       -1.4383530284        5.2839838862
 H       -15.5402588936       -1.9890187908        5.3998126464
 H       -16.1746679126       -1.6347278284        3.9098564527
 H       -17.5919704935        1.3579321680        5.6467865352
 H       -17.8545300432        0.1919458201        4.1511582596
 H       -16.9828703490        1.7141000068        4.0851051678
 Na       -9.9158855285        4.1400620335       -0.2220473656
