117

 C       -14.3181923014        0.1295199749        7.5396713345
 C       -15.4562040875        0.8780103243        6.6522049709
 O       -15.8270967335        1.9539709917        7.0973873858
 C       -15.7533012156        0.3803276017        5.1898155385
 C       -14.4732279098        0.9822568157        4.4730306880
 O       -13.4903389789        0.2613758832        4.3011378449
 C       -14.3179562060        2.3818931872        3.7071881559
 C       -13.0749652318        2.2058822746        2.7524658904
 C       -11.8210880908        2.6288427442        3.4062119871
 O       -11.6666949171        3.7590394266        3.8083231195
 C       -10.4786857065        1.6580498801        3.2838682592
 C       -10.2706134548        1.5343886101        1.7359253429
 O       -11.0024638159        2.0806426348        0.9368453378
 C        -9.2955266581        0.4487604094        1.2046136511
 C        -8.1416893809        1.0221484821        0.2686451041
 C        -7.2742807937        2.2169335983        0.7244557736
 O        -7.7125623065        3.3421236479        0.4558933904
 C        -5.8248054966        2.1228296863        1.2919958661
 C        -4.8849990752        1.8513829803        0.0262720808
 O        -3.9180707258        1.2046435358        0.0709915990
 C        -5.3791439686        2.5459822806       -1.2290870710
 C        -4.3206747236        3.3701397348       -2.0351835864
 C        -4.5827210225        3.4950771667       -3.5463598360
 O        -5.2413997187        2.6575500114       -4.1477433494
 C        -3.7386680897        4.7130181976       -4.4956112909
 C        -4.9218802532        5.8582882574       -4.6365733087
 O        -4.7398752253        7.0631710362       -4.6030599978
 C        -6.3445109301        5.2910300559       -5.0798134758
 C        -7.3600279926        5.3864596366       -3.9595251014
 C        -8.7598671542        5.3893256129       -4.5915264138
 O        -9.1418299124        6.4288543073       -5.1734177880
 C        -9.8141336757        4.2443727636       -4.7330104260
 C       -10.4245539786        4.4205997268       -3.2445739151
 O       -10.1686697313        3.5586908823       -2.3922889232
 C       -11.6043267733        5.5252359567       -3.1866399470
 C       -12.2923032168        5.7762723262       -1.7771383280
 C       -11.3375294587        6.2808897716       -0.7366040906
 O       -10.1550671079        5.8673771786       -0.6180809842
 C       -11.8363487877        7.1309031985        0.4461075106
 C       -11.3268871203        6.5451773575        1.7252518564
 O       -10.7408056244        5.4418634180        1.7961024469
 C       -11.6621072997        7.3054112667        2.9766739569
 C       -10.9068694979        8.4599667595        0.3127919814
 C       -13.2982429768        7.5114671118        0.2988126339
 C       -10.8509509605        4.5982299712       -5.7718391011
 C        -9.0939168017        2.8995307356       -5.0184193042
 C        -2.3992574236        5.1365866042       -3.5750918511
 C        -3.5264101234        4.3421765694       -5.9138817043
 C        -5.3553072536        3.5644658035        1.8296395564
 C        -5.6550483369        0.9528292957        2.3014012127
 C        -9.2554534285        2.2976374152        3.9912649740
 C       -10.6506448466        0.3145266101        3.9743217589
 C       -15.9221475524       -1.1283256280        4.8999132984
 C       -17.0192448033        1.0968854174        4.7765780071
 H       -14.0623965166        0.8062773285        8.3066563635
 H       -13.4206505159       -0.0401499054        6.9044633637
 H       -14.7013621780       -0.8233480309        7.8470563098
 H       -14.2023356544        3.2009948114        4.3181554813
 H       -15.2552814264        2.4841506682        3.2080762505
 H       -13.2793256572        2.6863504190        1.7729642053
 H       -12.7353325452        1.1675436137        2.3973256130
 H       -10.0527566849       -0.1808159013        0.5144744351
 H        -8.7780539551       -0.1672933872        1.9254129759
 H        -8.4444334240        1.4245068007       -0.6976866254
 H        -7.6843458800        0.0168016326        0.0144493075
 H        -6.2413928990        3.2026971559       -1.2029722855
 H        -5.5482068761        1.7473327685       -1.9056494534
 H        -3.3743528307        2.7455330176       -1.9847541725
 H        -4.1757250016        4.2296489341       -1.4298518026
 H        -6.3577352082        4.3254197484       -5.4211911930
 H        -6.6209004549        5.8349772205       -5.9033435784
 H        -7.1474617539        6.2925076433       -3.3749966717
 H        -7.3557928601        4.4617022246       -3.3422776080
 H       -12.5430161101        5.0900386729       -3.6069270950
 H       -11.4714036734        6.3675048900       -3.8672832469
 H       -12.7315430345        4.8166582224       -1.4313343554
 H       -13.1193607831        6.4339401906       -2.0556592475
 H       -12.2490214462        6.6181744768        3.6827109727
 H       -12.2731878931        8.1985584851        2.6737984334
 H       -10.7575947633        7.6100347010        3.5409772765
 H       -10.5807401388        8.9550378404        1.2781002599
 H       -11.3326311740        9.1583406116       -0.4121570136
 H        -9.9023871900        8.1954110522       -0.1320545935
 H       -13.9382726831        6.6216491266        0.3745686332
 H       -13.4695348258        8.0670005009       -0.6701884002
 H       -13.6424631658        8.1211976064        1.0442845706
 H       -10.2908351430        4.6299885719       -6.5531458648
 H       -11.3829711328        5.4634838721       -5.5642955030
 H       -11.6287492605        3.8068966974       -5.8858312008
 H        -9.6256014509        2.3993334497       -5.8322409976
 H        -9.0014543029        2.2028549057       -4.1898774843
 H        -8.2135376967        3.2188624735       -5.5026414573
 H        -2.3022261232        5.9185172445       -2.8859281820
 H        -1.5708197435        4.9788634399       -4.3230802989
 H        -2.1111535218        4.2572559073       -2.9163825959
 H        -2.9385586722        5.1771980470       -6.3700874242
 H        -4.4428986099        4.0852590482       -6.5018415759
 H        -2.9465930910        3.3726843214       -6.0528214981
 H        -4.3941807591        3.3551660486        2.3935357622
 H        -6.0805206589        3.9803649354        2.5803089557
 H        -5.2166498526        4.2714515347        1.0448533834
 H        -6.0521806343        1.2441496403        3.3137762211
 H        -4.5902949251        0.6541885273        2.3958435198
 H        -6.1933187524        0.0730398142        2.0030185809
 H        -9.2576892111        3.4000326511        3.7132342124
 H        -8.4181187943        1.6798785685        3.8782699035
 H        -9.4703600019        2.3777429827        5.0051416097
 H       -11.2812401793        0.4571379640        4.9281391352
 H        -9.6639039044        0.0261199612        4.4830889585
 H       -10.8955681613       -0.4151807776        3.2126498365
 H       -16.3139696653       -1.7580292785        5.6731182782
 H       -14.9689702739       -1.5000126068        4.4916826077
 H       -16.6573292635       -1.2811241108        4.1260374642
 H       -17.9010929194        0.5178204723        4.7834598251
 H       -16.9104838384        1.5679179725        3.7867897156
 H       -17.1513653114        1.9376028629        5.4010099738
 Na       -9.9137026317        3.8731439406        0.1337312734
