117

 C       -11.5200265552        0.0879950557        6.6843019039
 C       -12.2526136612       -0.6634769573        5.6361035625
 O       -12.9594223271       -0.0983302086        4.8584933149
 C       -12.2281909143       -2.2494132456        5.5067233658
 C       -11.2268879135       -2.4433514797        4.3011648707
 O       -11.4779563089       -2.4456081212        3.1043977831
 C        -9.7247230623       -2.4862746975        4.7389427968
 C        -8.9512249448       -1.5734103082        3.8238655734
 C        -7.4177351954       -1.7768449199        3.7043297290
 O        -6.7138164939       -2.2265041878        4.6073266615
 C        -6.7764765044       -1.0299405488        2.4458101870
 C        -7.0909075519        0.5045681699        2.7544918190
 O        -7.5050045569        0.9210737401        3.8562268136
 C        -7.2732003352        1.5855530342        1.5275053150
 C        -6.9214004758        3.0180720248        2.1226678444
 C        -7.7743831296        4.1378601075        1.3850669282
 O        -7.4328799222        4.5637300681        0.2838938041
 C        -9.0751930287        4.8726617656        2.0774004150
 C       -10.4391323353        4.8242403908        1.2551388578
 O       -10.7863842524        5.7034551594        0.5344895943
 C       -11.5850557443        3.7590605805        1.4951220862
 C       -12.0004481851        3.2404172927        0.0804231277
 C       -10.7594403492        2.8720938282       -0.8683531952
 O        -9.6014329913        2.8402050191       -0.4602256290
 C       -10.9867750013        2.6051451258       -2.4125185078
 C       -10.1431016751        3.5826765098       -3.3437824952
 O        -9.5665041462        4.6095215745       -3.0045355184
 C       -10.1308599088        3.3188272053       -4.9012980378
 C        -9.6592287467        4.6531749092       -5.6155305296
 C       -10.7620188554        5.7178641570       -5.5615732496
 O       -11.7323106503        5.6299371612       -4.8626141499
 C       -10.5183242870        7.0971712231       -6.3162803818
 C       -10.4466248336        8.1367755709       -5.0589812133
 O        -9.4131740402        8.5261952593       -4.5542702048
 C       -11.8143294833        8.3332962838       -4.3428704742
 C       -11.6647723973        9.2266425004       -3.0560637583
 C       -10.5293587384        8.7504250330       -2.1493797493
 O       -10.8258133991        7.7601610489       -1.4960351347
 C        -9.3746576352        9.7526429210       -1.7244895948
 C        -8.0603372871        8.9021739019       -1.8606871433
 O        -7.9696608034        7.9404432689       -1.1295534748
 C        -6.8577304524        9.3074180268       -2.6470733393
 C        -9.3296426488       11.1969202981       -2.4811473041
 C        -9.4976502277        9.9725457023       -0.2048434335
 C        -9.1855484944        7.2207549692       -7.2159535532
 C       -11.7825326012        7.3536772874       -7.1920720797
 C       -10.4531038469        1.1891679486       -2.6035404066
 C       -12.4099117407        2.7177122192       -2.9331361011
 C        -9.1362724287        4.4544672844        3.5952689842
 C        -8.7206486860        6.4595918226        2.2632592887
 C        -5.2673163146       -1.2529910589        2.4857773195
 C        -7.2788028180       -1.6307237119        1.1135366249
 C       -11.6671833801       -2.9594645903        6.6908807682
 C       -13.6532752601       -2.7275484144        5.0837957170
 H       -11.7746343627       -0.3991819606        7.5603613196
 H       -11.8035592476        1.1249090358        6.8860194213
 H       -10.5088758591       -0.0321443250        6.4924499500
 H        -9.2979012494       -3.4254563906        4.8057551754
 H        -9.6233547993       -2.2054816327        5.8196236518
 H        -9.0158668517       -0.5505995793        4.3091412977
 H        -9.3194420573       -1.5698568208        2.7869246446
 H        -8.3103177318        1.6457225913        1.1324025990
 H        -6.6513245229        1.3223333248        0.6201518857
 H        -5.8762833154        3.2800524681        1.8470141370
 H        -7.0408240381        3.0007754063        3.2715318802
 H       -12.5048027821        4.0330377882        2.0797919903
 H       -11.1793224726        2.9465344121        2.0674609402
 H       -12.6350837494        4.0279568441       -0.2992194779
 H       -12.7201728681        2.3400364017        0.0358047345
 H       -11.1409703110        3.1988208626       -5.0924592005
 H        -9.5994790507        2.4223474326       -5.1315510575
 H        -9.1726231025        4.5609938344       -6.5613754530
 H        -8.9093658210        4.9733351151       -4.9295344269
 H       -12.0305528430        7.3413622334       -4.0467457543
 H       -12.6124539176        8.7321576453       -4.8568246099
 H       -12.5433402656        9.2265533455       -2.4292128635
 H       -11.5163685479       10.2399355291       -3.4045911679
 H        -6.9359696405       10.2966263802       -3.0470850910
 H        -6.7914619492        8.6496996985       -3.5762686778
 H        -5.8860268719        9.2654481085       -2.0798495188
 H       -10.3297129147       11.6001216522       -2.5413902033
 H        -8.9116419998       11.0809918310       -3.5078787835
 H        -8.6697087379       11.8315653950       -2.0800800971
 H        -9.0360217180        9.0885824274        0.2716109946
 H       -10.4914650009       10.1746793552        0.2171763545
 H        -8.9616795260       10.8087260860        0.2422712975
 H        -9.2136672614        6.3066539961       -7.9217599918
 H        -8.3346960532        7.0504760253       -6.6090858869
 H        -9.3459867325        8.1162193779       -7.7908798192
 H       -11.8111886556        6.6974818063       -8.0263120572
 H       -11.7779533696        8.3236684776       -7.6336067213
 H       -12.6776834714        7.1291906100       -6.5991079718
 H       -10.4515800858        0.8387829027       -3.6555353032
 H       -11.1415964067        0.4088527231       -2.1259190400
 H        -9.4624579558        1.0448112969       -2.1643608653
 H       -12.8708216441        3.7859335742       -2.8408603126
 H       -12.9670014852        1.9247260497       -2.3131959906
 H       -12.5993404636        2.4635204138       -3.9730471825
 H        -9.3572005997        3.3431342823        3.4787341993
 H        -9.9346436867        4.9327498217        4.0954985532
 H        -8.2088058864        4.7137139444        4.1287801548
 H        -8.1229379983        6.8479576434        1.4860049533
 H        -8.0345727923        6.5380062253        3.1153864235
 H        -9.6352897108        7.0179354962        2.3526748051
 H        -5.1680825186       -2.3455344865        2.5824026908
 H        -4.8492180551       -0.7795643645        3.3556565644
 H        -4.8404855235       -0.9295649133        1.5628382145
 H        -8.3249269124       -1.4597615030        1.0219303886
 H        -7.1088822412       -2.6987664490        1.0655443513
 H        -6.7569938319       -1.1602600398        0.3233419580
 H       -10.8037677406       -2.5171989405        7.2265841153
 H       -11.2980275753       -3.9341608118        6.3443135331
 H       -12.3862757378       -3.0860736881        7.4698708771
 H       -13.8325687330       -2.1938353966        4.1575571489
 H       -14.3564434801       -2.6943443905        5.8478733949
 H       -13.6247163812       -3.7932722764        4.8724167286
 Na       -9.0915180160        5.8580104776       -1.1030321575
