117

 C       -13.9036345989        0.9711531369        7.3664258777
 C       -15.2016328051        1.4161312621        6.8182080616
 O       -15.9778769967        2.0637344383        7.4073458711
 C       -15.6502321430        0.7418278965        5.3630898228
 C       -14.4783770818        0.9027662211        4.3522129772
 O       -13.7757209150       -0.0001179684        3.8893197932
 C       -14.1727009785        2.3743604829        3.9096717943
 C       -13.0073769962        2.4332303705        2.9836329890
 C       -11.6735779542        2.9624586956        3.6537466684
 O       -11.6748986054        3.8890114154        4.4670154138
 C       -10.3980412910        2.0761533259        3.3345339783
 C       -10.1476817999        1.5767353190        1.8407973280
 O       -10.7746577357        1.8911337765        0.8780157992
 C        -8.8828079148        0.6595060199        1.5289466811
 C        -8.0344964939        1.1865328516        0.3883336302
 C        -7.4206141939        2.5431335074        0.9045418131
 O        -8.0383135831        3.5919806408        0.9396336256
 C        -5.9768521326        2.2999766333        1.2918814841
 C        -5.1700533525        1.7428124359        0.0207838362
 O        -4.3078037981        0.9868359583        0.2361654339
 C        -5.3856520825        2.4419334690       -1.3030756465
 C        -4.0042026431        2.8880145778       -2.0455956562
 C        -4.2853200659        3.0565977278       -3.5603519429
 O        -5.0768837692        2.2680604486       -4.0579085393
 C        -3.7183333919        4.2168004591       -4.4451072238
 C        -4.8423700586        5.3949039347       -4.7208034707
 O        -4.7126481820        6.4886606174       -4.2170170109
 C        -6.2305647814        5.0697993803       -5.4491568300
 C        -7.3339245379        5.2207769834       -4.4109346698
 C        -8.7882027092        5.2910411408       -4.9674600991
 O        -9.1615249420        6.2921856297       -5.4727700329
 C        -9.8806573651        4.0743428425       -4.6937719982
 C       -10.6661269513        4.3242677010       -3.3865760917
 O       -10.2305897820        3.8447814759       -2.3753433708
 C       -11.8688772114        5.2797928593       -3.2919681183
 C       -12.3440754150        5.4526769959       -1.8186840449
 C       -11.2948986838        6.2737533308       -0.9598699066
 O       -10.1059417974        6.3114341299       -1.1667753969
 C       -11.7684303531        7.2452727309        0.1890016140
 C       -11.4031842068        6.5569694507        1.5551757997
 O       -10.8694911165        5.4738554148        1.6271751428
 C       -11.7092239700        7.3441015138        2.7573501269
 C       -10.9536525477        8.4891082400        0.0149930665
 C       -13.3156423237        7.5005446991        0.3759627470
 C       -10.9585645882        4.1872994519       -5.9867822811
 C        -9.1199329660        2.6101600922       -4.7039703230
 C        -2.4164143455        4.8673970881       -3.8369360249
 C        -3.1570477217        3.4921061336       -5.6420322309
 C        -5.3445461772        3.6429508819        1.7882245804
 C        -5.7880044891        1.0182723269        2.1754564894
 C        -9.0854689093        2.8248436863        3.6969064176
 C       -10.6037805465        0.7816777952        4.2462103470
 C       -16.1065001354       -0.7684804995        5.6899645269
 C       -16.9819505969        1.2970402379        4.7766512829
 H       -13.5653817490        1.9136875933        7.8074082774
 H       -13.1601739472        0.6970038852        6.6463711213
 H       -14.1086351031        0.1697985925        7.9746378959
 H       -14.0401155253        2.8036758321        4.8954351840
 H       -14.9906843913        2.8491287528        3.6150278818
 H       -13.2333521091        3.1669772293        2.2068011662
 H       -12.8370752595        1.3563398030        2.5721992044
 H        -9.3065883139       -0.3821877079        1.1910037491
 H        -8.3369881888        0.5844724756        2.4520339006
 H        -8.7026231560        1.2206088889       -0.4384350750
 H        -7.2188848919        0.5378911638       -0.0046459280
 H        -5.9085158524        3.4522361427       -1.3388501601
 H        -5.9291166099        1.8013615999       -2.0550006134
 H        -3.3356767529        2.0007382921       -1.8341091164
 H        -3.6321529529        3.7225039393       -1.4191932046
 H        -6.3127570567        4.2101783012       -6.0137789562
 H        -6.3368231153        5.8152140992       -6.0989814927
 H        -7.1130417717        6.1685564923       -3.8972522514
 H        -7.1161335408        4.4172492072       -3.6765954566
 H       -12.5736125145        4.7786829662       -4.0108856780
 H       -11.6808300226        6.2782078213       -3.6750426975
 H       -12.4821629013        4.4808591126       -1.3692266998
 H       -13.1126030137        6.0691977450       -1.5869428903
 H       -12.7336476360        7.2834322315        3.0204583630
 H       -11.2470021698        8.3617896685        2.5831493344
 H       -11.2604287328        6.8737564964        3.5942089119
 H       -11.3460689288        9.3166505884        0.6036756680
 H       -10.9608009249        8.7008187472       -1.0773282321
 H        -9.9663328997        8.4158476983        0.3698985264
 H       -13.8956766365        6.7038607570        0.8397137265
 H       -13.7871949632        7.7887730576       -0.5645099471
 H       -13.4810576995        8.3538577374        0.9772712947
 H       -10.6436471388        3.6044042821       -6.8817584472
 H       -11.1006686827        5.2397736067       -6.2158470897
 H       -11.8975967640        3.7619458942       -5.7504239398
 H        -9.5484657680        2.0438343639       -3.8372459705
 H        -8.0522783639        2.8275341088       -4.6045330423
 H        -9.1669514827        2.1506237596       -5.6277057400
 H        -2.4075564526        4.9163822909       -2.7457921682
 H        -2.2014689213        5.9370123409       -4.1646764871
 H        -1.5317094500        4.1863949359       -3.9114261960
 H        -3.0487212346        4.1765185972       -6.4332315393
 H        -3.6621487247        2.6399072824       -6.0622446137
 H        -2.0825851776        3.3294070551       -5.4680190385
 H        -4.2921315682        3.5071631802        1.9844683044
 H        -5.8160390530        3.9158933496        2.7057716229
 H        -5.4868432921        4.3630551491        1.0747509844
 H        -6.3705712654        1.1071153822        3.1145910773
 H        -4.6382859759        0.9718791059        2.3679079674
 H        -6.0638479072        0.0573825804        1.6957714994
 H        -8.8413511616        3.5513599020        2.9266776282
 H        -8.1978143787        2.1220190418        3.7654965182
 H        -9.3039853443        3.3547502194        4.6652016837
 H       -10.6221529214        1.1222181332        5.3199750141
 H        -9.7865627217        0.1028096443        3.9481380326
 H       -11.5411524320        0.3478576934        4.0189770709
 H       -17.1030720498       -0.9424767673        5.4002979685
 H       -16.0339400440       -1.0932217883        6.7156654065
 H       -15.5867472616       -1.4115646094        5.0084785202
 H       -17.7527530425        1.2409046462        5.5390180788
 H       -17.4091684568        0.7214149242        3.8792045521
 H       -16.9499351874        2.2839031474        4.5368383092
 Na      -10.2921709272        4.0316969995       -0.1591113049
