117

 C       -13.8466809046        1.1768182549        7.4154910733
 C       -15.2438519837        1.4531694891        6.7859301116
 O       -16.0535171907        2.1564622641        7.3561070155
 C       -15.7224419549        0.7708141135        5.3633680314
 C       -14.6492435613        0.8987646913        4.3194405789
 O       -14.0657235260       -0.0202419238        3.7791276307
 C       -14.1902171612        2.4316261118        4.0539284612
 C       -12.9951360817        2.3480815239        3.0644487636
 C       -11.6219447276        2.9471137576        3.6754086809
 O       -11.6254889182        3.8357519669        4.5005541010
 C       -10.2801125532        2.1271762312        3.3206840595
 C       -10.0936421098        1.6011197249        1.8653275994
 O       -10.8976071284        2.0468002469        1.0732408776
 C        -8.9780280664        0.6371903254        1.4776002587
 C        -8.0648242871        1.1742319499        0.3581064270
 C        -7.3359101806        2.4506099937        0.8778395174
 O        -8.0218071322        3.4924590370        0.9417400206
 C        -5.8944298993        2.2544781172        1.3938456486
 C        -5.0236694896        1.8951147823        0.0618681426
 O        -4.2943550747        0.8259206947        0.0833264839
 C        -5.3671933250        2.5117531945       -1.2922057207
 C        -3.9992364018        2.8832711230       -2.1252010842
 C        -4.4114003486        2.9803297234       -3.6277764441
 O        -5.1698467866        2.1793434613       -4.1684420638
 C        -3.6601095809        4.0871332824       -4.4979522037
 C        -4.8278840716        5.2132654526       -4.6455177886
 O        -4.7453611686        6.3045572706       -4.1282162536
 C        -6.0405441870        4.8082521465       -5.4742175842
 C        -7.2525181652        5.1577349498       -4.4537143844
 C        -8.7728034861        5.3113940507       -5.0125100838
 O        -9.1019491376        6.3125897503       -5.5756589426
 C        -9.9287535228        3.9617447771       -4.6444824412
 C       -10.6714233580        4.2568033350       -3.3741541634
 O       -10.2266170160        3.7762755519       -2.3705501283
 C       -11.8363570245        5.2055515938       -3.3332484504
 C       -12.2657833155        5.4860031054       -1.9039380934
 C       -11.2784450400        6.4689757389       -1.0621293929
 O       -10.1189457855        6.3956605690       -1.3159445648
 C       -11.7515552247        7.2703146602        0.1079219526
 C       -11.3236276474        6.5561449312        1.5656280115
 O       -10.9204889103        5.4415711905        1.5123176174
 C       -11.6519120683        7.3753106408        2.8260331009
 C       -11.0081865709        8.5802700458        0.1376772776
 C       -13.3477050700        7.4047768394        0.0639119341
 C       -10.8434064622        4.0318276332       -5.8951889270
 C        -9.2720158882        2.6349765108       -4.5906061003
 C        -2.3858600653        4.9360951123       -3.7680378623
 C        -3.3336188642        3.5326512337       -5.8287209056
 C        -5.3916347343        3.6273106884        1.8784129499
 C        -5.7457092269        1.2236246078        2.4910452400
 C        -9.1141122801        3.0440740012        3.7561189695
 C       -10.4408437492        0.8901472415        4.3390259679
 C       -15.8448348105       -0.7772012165        5.7584987159
 C       -17.0228306602        1.4652783258        4.9850967614
 H       -13.3879299094        2.1047297923        7.8162699592
 H       -13.1981653194        0.8125462650        6.6790858750
 H       -14.0859834042        0.3779801562        8.0870375589
 H       -14.0658602996        3.0891121425        4.9437707573
 H       -15.1040304798        2.8511346801        3.6357229347
 H       -13.1537969303        3.0986300540        2.1785333167
 H       -12.8410594390        1.2732076152        2.7737555743
 H        -9.5331163195       -0.1997936531        1.0934182663
 H        -8.4035397125        0.3245265451        2.4450610849
 H        -8.7313934514        1.2039285192       -0.5682488215
 H        -7.2630320675        0.5025720163        0.0339223156
 H        -5.9860070176        3.3429596303       -1.4767074109
 H        -5.7738510624        1.7176800306       -1.7819953171
 H        -3.3614091364        2.0491761957       -2.0315225381
 H        -3.5109120496        3.7525004033       -1.5919968892
 H        -5.9997376625        3.7583070178       -5.7152180182
 H        -6.1291324536        5.3600780010       -6.4224389419
 H        -6.9350583488        6.0570871758       -3.9213014003
 H        -7.0869015138        4.3497877544       -3.7635674713
 H       -12.5350897563        4.6804100072       -3.9916697171
 H       -11.6342847498        6.1614305028       -3.7986250054
 H       -12.1538933078        4.4960880270       -1.3453327314
 H       -13.2185260404        5.9434406224       -1.6498203306
 H       -12.7336247532        7.4348385780        2.9195485691
 H       -11.0540054942        8.3124101291        2.8249789597
 H       -11.4347638255        6.7500229818        3.7584303286
 H       -11.5493346917        9.3834267512        0.6945251265
 H       -10.8949925752        8.8437633805       -0.9570343359
 H       -10.0397548845        8.5480879140        0.6086004701
 H       -13.8522806156        6.5638343730        0.5130311888
 H       -13.7657682408        7.5729553215       -0.8686706231
 H       -13.7016270809        8.3079134250        0.6798938103
 H       -10.2888047001        3.8201761218       -6.8488504056
 H       -11.1253222271        5.0050329706       -5.9311291516
 H       -11.6160893404        3.3861196354       -5.9285334957
 H        -9.5949007422        2.2360125449       -3.6819062523
 H        -8.2296376096        2.8615944902       -4.6337774387
 H        -9.3786697011        2.0100401108       -5.4492415341
 H        -2.4299460077        5.5463785034       -2.7725073050
 H        -2.1535224413        5.6984399825       -4.4873561799
 H        -1.5392740117        4.3074183997       -3.5577343333
 H        -2.8350415378        4.1276253504       -6.5987648925
 H        -4.3116410460        3.2343326491       -6.2832251347
 H        -2.6462746355        2.6661614218       -5.7202290438
 H        -4.4205368306        3.4701594813        2.2770081235
 H        -6.0142341583        3.9909402014        2.6890839779
 H        -5.3261476270        4.3571974284        1.0164800162
 H        -6.2542786377        1.7099083060        3.3330607242
 H        -4.6937748972        1.0124251109        2.7151421004
 H        -6.2695749337        0.2254211554        2.3225871992
 H        -8.9885608297        3.8221008699        3.1020275738
 H        -8.1442558226        2.5123291923        3.6665813265
 H        -9.3448112946        3.3605447170        4.7839655241
 H       -10.6337427288        1.2432643567        5.3666577611
 H        -9.5257732552        0.2966785668        4.0500746029
 H       -11.3947235277        0.3128338927        4.0361150180
 H       -16.7428988519       -1.2153040007        5.3834616475
 H       -15.8975029332       -0.9490322349        6.7916407066
 H       -15.0306147956       -1.2849071501        5.2292275360
 H       -17.4333322644        2.0462393908        5.7715575500
 H       -17.7888784941        0.7955134351        4.6892370003
 H       -16.9176033330        2.1794991262        4.1942646598
 Na      -10.3410545523        4.0358338276       -0.2450893043
