117

 C       -13.8502790478        1.3442009534        7.3437482022
 C       -15.3470166172        1.4750891714        6.8153490277
 O       -16.0441053196        2.3272202492        7.3870942840
 C       -15.7479343642        0.7782310803        5.5390646533
 C       -14.7331672859        0.9986798460        4.3659029376
 O       -14.4222486718        0.0539335343        3.7025733949
 C       -14.0877299849        2.3852611625        4.0601116882
 C       -12.8896369011        2.3661126071        3.0093431455
 C       -11.6401021146        2.8303416097        3.7197357532
 O       -11.5975981090        3.7790095873        4.4441587250
 C       -10.2244409323        2.1357473492        3.4480170409
 C       -10.1894802774        1.7751193722        1.9455724657
 O       -10.9789774677        2.2538243308        1.0790780343
 C        -9.2338767051        0.6202960600        1.4958689402
 C        -8.2609499575        1.1154542399        0.3905125169
 C        -7.3210368156        2.3040443621        0.9007741025
 O        -7.9009755032        3.3767780823        0.8350195471
 C        -5.8421329582        2.3135737778        1.3883498262
 C        -4.9931211943        1.7719904482        0.0222326432
 O        -4.2502592228        0.7870912134        0.0515259669
 C        -5.3530468036        2.5762956595       -1.2075642726
 C        -4.0679984062        2.8299713915       -2.1473384308
 C        -4.3200544894        2.9242483724       -3.5944446396
 O        -5.1408153956        2.2999764978       -4.2273776509
 C        -3.6946845463        4.0088694940       -4.6213486563
 C        -4.8202788741        5.0398698707       -4.6000743330
 O        -4.7416875528        6.1166533438       -4.0315085273
 C        -6.1288110821        4.5921778217       -5.3214398897
 C        -7.3770411167        5.0515159990       -4.4360952087
 C        -8.6999709346        5.1135551355       -5.0508706196
 O        -9.1092068759        6.1462870051       -5.6188580422
 C        -9.7154617623        4.0405424783       -4.7425543500
 C       -10.4735081519        4.3371667782       -3.3661975937
 O       -10.1590917781        3.5910122780       -2.4166878325
 C       -11.7718435366        5.2122723530       -3.2753616878
 C       -12.2586832414        5.6082938167       -1.9767812201
 C       -11.2748295383        6.5171613011       -1.1813704068
 O       -10.1013149912        6.4735492618       -1.5408084404
 C       -11.8128102993        7.3137651177        0.0653178301
 C       -11.4989523959        6.5287836323        1.4386378721
 O       -10.9353276773        5.4298381267        1.5253470923
 C       -11.5674322850        7.2525176035        2.7369267072
 C       -11.1524713431        8.8510780017        0.1980656658
 C       -13.3370262508        7.4735754725       -0.0897025937
 C       -10.7863619579        3.9986084359       -5.9486323852
 C        -9.1847513594        2.5640348778       -4.5694987957
 C        -2.6168531373        4.7173689801       -3.8570334712
 C        -3.3731956420        3.5719740932       -6.0272787981
 C        -5.3607177926        3.7644685949        1.8990455814
 C        -5.7118788127        1.4731737382        2.7164534631
 C        -9.1053744045        3.2016233000        3.8975858596
 C       -10.1495682174        0.9332274754        4.4389962602
 C       -15.6670586443       -0.7648187049        5.8603621530
 C       -17.0744784225        1.4946108802        5.1106690762
 H       -13.4290343650        2.2743695173        7.5742914272
 H       -13.2388051021        0.9074893876        6.5323457887
 H       -13.9486442252        0.5475531245        8.1623012097
 H       -13.7729064413        3.0241220512        4.9516560066
 H       -15.0869253559        3.0367502313        3.7576306962
 H       -12.9800966960        3.1130489990        2.1590904381
 H       -12.6416993410        1.3454745140        2.7388563659
 H        -9.8790624089       -0.1416734688        1.1748847725
 H        -8.6116273976        0.2369249816        2.3407102059
 H        -8.7757685924        1.3903706335       -0.6021236346
 H        -7.5491435070        0.3557344908        0.0266784475
 H        -5.5889252144        3.5710695809       -1.1302120422
 H        -6.1768357168        2.1228094093       -1.6761445432
 H        -3.2821058064        2.1393870678       -1.9466201134
 H        -3.7470733783        3.7681880576       -1.7787605785
 H        -6.0583071877        3.4719756174       -5.6029943739
 H        -6.3854066515        5.1765805774       -6.3352024958
 H        -7.0441367942        6.0355469927       -4.1673924538
 H        -7.3525302342        4.4539961245       -3.5493406941
 H       -12.5050834643        4.6312713609       -3.8200199327
 H       -11.6510923877        6.1632072086       -3.8165749121
 H       -12.4129528088        4.6891566953       -1.3301197420
 H       -13.2289010285        6.2669130226       -1.9281859959
 H       -12.5996112861        7.6606134126        3.0047841494
 H       -10.6953428024        7.8839863279        2.7766468641
 H       -11.4823623483        6.4799226398        3.5449784442
 H       -11.5820344340        9.5625102001        0.9388312292
 H       -11.1459328378        9.2654950421       -0.7893622093
 H       -10.0411767496        8.7279996259        0.5246088553
 H       -13.8671457335        6.5156202932       -0.0909583073
 H       -13.5864998418        7.9698499205       -1.0540512760
 H       -13.8531625091        8.0868473729        0.6619123073
 H       -10.3669976390        4.0005114338       -6.8700934175
 H       -11.4535349597        4.8652138665       -5.9851928642
 H       -11.3629475649        2.9982046221       -5.9026601372
 H        -9.5596612113        2.2991845549       -3.6483569920
 H        -8.1472537086        2.5147067043       -4.7268225059
 H        -9.5560310009        1.9006684707       -5.3795574326
 H        -2.7575046567        5.5514458817       -3.2005895035
 H        -2.0111933625        5.1964022135       -4.5802249808
 H        -2.0448224483        3.9966118074       -3.3036069111
 H        -2.5470675889        3.9679088020       -6.6952441087
 H        -4.3202668570        3.8477751074       -6.5562437553
 H        -3.2162457883        2.5062511732       -6.0673352467
 H        -4.4846151527        3.5095881091        2.5336584913
 H        -6.1503706940        4.0562479157        2.6287661221
 H        -5.1050670027        4.6088831696        1.1717710185
 H        -6.2031839978        2.0546214678        3.5202985277
 H        -4.7307777816        1.2545147985        2.9738429542
 H        -6.2539680218        0.5517516653        2.5988506253
 H        -9.1741118830        4.0502487649        3.1598450256
 H        -8.1981934302        2.8511064173        3.5491698973
 H        -9.1095621284        3.4122020800        4.9063248375
 H       -10.5295677899        1.3283384668        5.3966228187
 H        -9.1643016658        0.4988028805        4.2829768054
 H       -11.0049865428        0.1990481319        4.1385780404
 H       -16.3584122752       -1.3031008524        5.1669716522
 H       -16.1359592660       -0.9729278788        6.8192590752
 H       -14.6413963776       -1.1161630423        5.6862362682
 H       -17.2669732800        2.4692860106        5.5170889338
 H       -17.9152960412        0.9349186931        5.2744872517
 H       -17.0557448967        1.6932099044        3.9873696571
 Na      -10.2100581861        3.9126683456       -0.1108850670
