117

 C       -13.8103685129        1.7486618186        7.2272682928
 C       -15.3088012531        1.9903665531        6.8916147673
 O       -15.9680708540        2.9399727511        7.2287872446
 C       -15.8053555835        1.0039482744        5.8427678997
 C       -15.0560969456        1.1225535542        4.4991215604
 O       -15.3024862269        0.3924989497        3.5478188440
 C       -14.2487626024        2.3690331091        4.2505226746
 C       -12.7770380520        2.0045659413        3.6332373905
 C       -11.6634718014        2.9352236882        4.0876745939
 O       -11.5984452138        3.8766741688        4.8593449870
 C       -10.2075459445        2.4226269908        3.6821366381
 C       -10.1365795114        1.9145835803        2.1311889138
 O       -10.7551653523        2.6285034107        1.3179896489
 C        -9.1815996319        0.7522000460        1.7808510194
 C        -8.0879585577        1.1253511279        0.6094143665
 C        -7.3513716416        2.4727971298        0.8575464988
 O        -7.8728697904        3.4852847153        0.4759852176
 C        -5.8334845217        2.4250638456        1.3115691940
 C        -4.9123537394        1.8344094178        0.0531373764
 O        -4.1501393468        0.9684272646        0.1517170573
 C        -5.3751980834        2.2633592416       -1.3383511813
 C        -4.0194863822        2.4511903994       -2.2192061910
 C        -4.4040462162        2.5194066747       -3.6704361788
 O        -5.1785737561        1.6733681767       -4.0514016226
 C        -3.8259520306        3.7383508312       -4.5189555324
 C        -4.8332843900        4.8813988979       -4.3437244229
 O        -4.5270018818        5.7479715554       -3.5714846565
 C        -6.1897580216        4.7706431536       -4.9846633040
 C        -7.5539736261        4.8102986363       -4.1787971622
 C        -8.6505560943        4.7770145150       -5.2012096430
 O        -9.0395896228        5.6362383645       -5.9657454341
 C        -9.7916931330        3.5182818144       -4.8815172640
 C       -10.3456954177        4.0154921047       -3.5645141953
 O        -9.9242701772        3.5332134283       -2.5102991685
 C       -11.3459054174        5.2355442286       -3.5328272542
 C       -12.0169009940        5.6804672157       -2.1739136102
 C       -11.1493363925        6.7505002091       -1.4145209774
 O       -10.0333493521        7.0355122062       -1.7954973026
 C       -11.8051224178        7.5114228301       -0.0506983837
 C       -11.4741227631        6.5949930645        1.0651411278
 O       -11.1771406504        5.4523081662        0.7232062334
 C       -11.7115684457        7.0830053570        2.4930274687
 C       -11.3313670406        8.9901224207        0.0115694110
 C       -13.3267197115        7.6114426012       -0.2403447731
 C       -10.9070740145        3.4729184739       -5.8874823679
 C        -9.1372612580        2.1089478043       -4.5773129659
 C        -2.4524957210        4.3108131895       -4.1901913788
 C        -4.0697282795        3.0709686681       -6.0039614269
 C        -5.4131939504        3.8166621219        1.6645616467
 C        -5.5137518628        1.5647114236        2.5848373569
 C        -9.1725387477        3.5500407312        3.8164243959
 C        -9.8335928861        1.3408351293        4.7177836923
 C       -15.6120222540       -0.5459720757        6.3288739442
 C       -17.2690261462        1.2875096083        5.6405546850
 H       -13.2766476351        2.6201559903        7.1054307305
 H       -13.3867865989        0.9886202632        6.5852124524
 H       -13.8243230787        1.3534925050        8.2647627928
 H       -14.2026655781        3.0860089448        5.1381076038
 H       -14.6502244450        2.9142565248        3.2956919590
 H       -12.8385271883        2.1568396706        2.5213724329
 H       -12.5117360856        1.0113856820        4.0649162982
 H        -9.6730287619       -0.1204499184        1.3108816557
 H        -8.7500257333        0.2891381027        2.6352679149
 H        -8.5001510067        1.2796423402       -0.4536695782
 H        -7.3467940978        0.2959058410        0.6833609653
 H        -5.9830793448        3.0613921292       -1.6042446940
 H        -5.8676510765        1.4736243677       -1.8589320978
 H        -3.3946698711        1.5839120194       -1.8889316066
 H        -3.4897103212        3.3119701199       -1.8631049059
 H        -6.2292420940        3.8230603852       -5.6659064864
 H        -6.2653014141        5.6894164086       -5.6553217507
 H        -7.6774979686        5.6974341307       -3.5979754227
 H        -7.4932527623        3.9285692265       -3.5663536449
 H       -12.1965399714        5.3678153905       -4.1764232647
 H       -10.6639291965        6.0315837515       -3.8746442786
 H       -12.2749990886        4.9128609253       -1.3665887515
 H       -13.0635901183        6.1192177499       -2.5003583934
 H       -12.2060112872        8.1015918906        2.4092978347
 H       -10.8186877364        6.9205329464        3.1034821944
 H       -12.5304521542        6.5290425990        2.9893529931
 H       -11.7280602612        9.5265619597        0.8883235084
 H       -11.7593407107        9.5315814393       -0.8045457153
 H       -10.1811774946        8.9825245105       -0.0653088610
 H       -13.8965089624        6.7038435043       -0.1125756983
 H       -13.6073267753        8.0686539736       -1.2354335957
 H       -13.6697091273        8.3539240152        0.4050503899
 H       -10.6091342020        2.9698081046       -6.8010296529
 H       -11.1685643640        4.4360086595       -6.1655175783
 H       -11.7348405053        2.9930262868       -5.4677062437
 H        -8.7153758934        1.9730025430       -3.5867346788
 H        -8.4178521513        1.9554220071       -5.3575207160
 H        -9.9637906591        1.3883385781       -4.6392543610
 H        -2.3734316513        4.4422189050       -3.1318158214
 H        -2.2067059944        5.3644498786       -4.5221788501
 H        -1.5957559137        3.6693969234       -4.5827248149
 H        -4.4653379906        2.0352776066       -6.0379437311
 H        -3.1090686961        2.8817029855       -6.5256158436
 H        -4.7172564385        3.6889630231       -6.6045693576
 H        -4.3255034449        3.8384507939        1.4554850640
 H        -5.6635000768        4.0102405824        2.6944645360
 H        -5.8746396443        4.5922452435        1.1254233048
 H        -6.2218485530        1.8589858444        3.4418838029
 H        -4.5249925672        1.8067765615        3.0127110687
 H        -5.5963631615        0.5458248978        2.2541903493
 H        -9.2301702062        4.2226955460        2.8880623647
 H        -8.1766507938        3.2140958704        3.7134108313
 H        -9.2223546571        3.9957265132        4.7681740995
 H        -9.8147976193        1.9168255171        5.7472881321
 H        -8.7877923394        0.9684355960        4.4691506945
 H       -10.6670771672        0.6515883966        4.9302996753
 H       -15.0198758071       -1.0981281967        5.6410299401
 H       -16.6003008514       -0.9713578137        6.3047673594
 H       -15.2791531931       -0.5539201346        7.3196006016
 H       -17.6495682623        1.2718069738        4.6886690258
 H       -17.4292659473        2.3186493980        5.9733850417
 H       -17.9227305428        0.7500907628        6.2852066720
 Na      -10.0056314401        4.1590674073       -0.4282556261
