117

 C       -14.3597837686        2.7235123841        8.4709929804
 C       -14.9789216108        2.9207168435        7.0753115756
 O       -14.9620767806        3.9917848697        6.5762453833
 C       -15.6586723567        1.7029617673        6.3463129246
 C       -15.2232879612        1.4714277095        4.9087253720
 O       -15.7282042732        0.6019126920        4.2437754309
 C       -14.3014163223        2.4616717453        4.1265843352
 C       -12.8283309253        2.2521477680        4.4729061740
 C       -11.9560926382        3.4799470440        4.1645751536
 O       -12.3849821791        4.5407281610        3.7688696719
 C       -10.4003492598        3.1041072301        4.2426383346
 C       -10.0283208842        2.6123181649        2.7313240387
 O       -10.4227849439        3.1603357011        1.7152191852
 C        -8.9272147088        1.5038528329        2.7551151675
 C        -8.1243034884        1.5050608909        1.4127959268
 C        -7.1666548424        2.6740800229        1.0230811634
 O        -7.5506719466        3.3682787578        0.0645500288
 C        -5.7305500467        2.8300156097        1.2677608438
 C        -5.1466252778        1.9054774580       -0.0126520457
 O        -4.2532690427        1.0812861451        0.2595709086
 C        -5.5065814558        2.0385619855       -1.5756798628
 C        -4.2122482607        1.5599882123       -2.4753471411
 C        -4.6367000616        1.5507652578       -3.9509057283
 O        -5.5400197493        0.8931845877       -4.3992722855
 C        -4.0866927717        2.6624509513       -4.8669511900
 C        -4.7134896282        3.9626348616       -4.1960728420
 O        -4.0362471806        4.7525058168       -3.5664666916
 C        -6.2111856780        4.3340558645       -4.2904216573
 C        -7.2008583362        3.2003614156       -4.4567185683
 C        -8.4215913388        3.5510002418       -5.3949948698
 O        -8.3562216266        4.2047003623       -6.3810335525
 C        -9.8673082831        3.0478584239       -4.8502339318
 C       -10.3813959524        3.8081772645       -3.6131762135
 O        -9.7468470616        3.5969515748       -2.5880960391
 C       -11.4213802751        4.8427978574       -3.8201667407
 C       -12.0168475929        5.4415800507       -2.5542777048
 C       -11.0155941794        6.3558442483       -1.7403506412
 O        -9.7996025378        6.4276275681       -1.8614654966
 C       -11.7457880188        7.4975610348       -0.8306432201
 C       -11.7766208746        6.9483505602        0.7034881399
 O       -11.2375192782        5.9165120985        0.9985598937
 C       -12.6950282217        7.7723092521        1.6798323739
 C       -10.6707108802        8.5801681322       -0.8811212406
 C       -13.0783857658        8.0654323108       -1.2797612177
 C       -10.8090582608        3.2064979522       -6.1475219998
 C        -9.6573618135        1.4590100778       -4.5411475706
 C        -2.5659614009        2.9753091476       -4.8376141003
 C        -4.5943163429        2.4779067390       -6.3697947404
 C        -5.3583961216        4.2986989817        1.0862151287
 C        -5.1820478479        2.2121468676        2.5929110927
 C        -9.5893444980        4.3638116636        4.6725329818
 C       -10.1335242202        1.9049671519        5.2252646433
 C       -15.4220797049        0.3628891527        7.0869033008
 C       -17.2530406831        2.0933807490        6.3218218339
 H       -13.5907008910        1.8992764963        8.3553634861
 H       -15.0905339819        2.6900624869        9.3118001033
 H       -13.8286055313        3.6338990543        8.6116396059
 H       -14.4789429638        3.4376334703        4.4267950164
 H       -14.4378026636        2.3340040015        3.1337253835
 H       -12.4472805083        1.2991705613        3.9589657972
 H       -12.6798802109        1.9247648589        5.5111110241
 H        -9.3119637092        0.4320822111        2.7056273607
 H        -8.3126570322        1.6315627881        3.6366623537
 H        -8.9095799440        1.4539962585        0.6326797456
 H        -7.5395352208        0.6236141930        1.2192850804
 H        -5.9189783961        3.0523652295       -1.5384288316
 H        -6.2608452234        1.2820988131       -1.8278748740
 H        -3.8385043971        0.6059794286       -2.0925453960
 H        -3.3313584151        2.1270223814       -2.3294999025
 H        -6.2843560339        4.9432670933       -5.0746378999
 H        -6.4745416255        4.9797633207       -3.5075859889
 H        -7.6008747104        2.9064834944       -3.4528140469
 H        -6.5631141220        2.3751336304       -4.8232933850
 H       -12.3640907998        4.5683403996       -4.3163682189
 H       -10.9849663331        5.5104518390       -4.5988527083
 H       -12.3491161269        4.7570265565       -1.8886730849
 H       -12.9316087790        5.8606889040       -2.8369404876
 H       -12.2335450949        8.6855294273        2.0517225843
 H       -12.7480899172        7.1448181407        2.6635670678
 H       -13.7135349061        7.7877485115        1.2720774673
 H       -11.0855573259        9.4448022213       -0.2832776675
 H       -10.6117290810        8.8203405071       -1.9733666084
 H        -9.7736173452        8.2464835884       -0.4020634952
 H       -13.9074586233        7.3838234020       -1.0741559843
 H       -13.0539350055        8.3588601761       -2.3842794952
 H       -13.1933015563        8.9933768011       -0.8772600523
 H       -10.4960447307        2.4708167942       -6.8553627294
 H       -11.1084075887        4.2267708076       -6.6620495487
 H       -11.7613841835        2.6005801399       -5.8655577346
 H        -8.9280789620        1.0034986499       -5.2300587745
 H       -10.6514099495        1.0451249142       -4.5700175886
 H        -9.3052436775        1.2777604035       -3.5564537131
 H        -2.0452672628        2.3840950122       -5.5671566424
 H        -1.9741496731        2.6885920785       -3.9182386787
 H        -2.5804885953        3.9948551432       -5.0510931642
 H        -4.4055985008        3.3190539411       -7.0186704783
 H        -5.5969311282        2.0601029296       -6.4993866575
 H        -4.0621185909        1.5992283301       -6.6744189337
 H        -4.5237521572        4.3320316838        1.8314683672
 H        -6.1208485569        4.9788091567        1.5161696923
 H        -5.0452845911        4.6314383354        0.1381321932
 H        -5.9153618136        2.2650965741        3.4314222628
 H        -4.2751369491        2.8527240425        2.7672257692
 H        -4.7942584952        1.2133833260        2.4943212324
 H        -9.9329432647        5.2408417905        4.2681208622
 H        -8.5421304194        4.3347328119        4.5447046162
 H        -9.8617512337        4.4845630398        5.7487098122
 H       -10.8868790630        1.9505532535        6.0411421475
 H        -9.1070758915        1.8150961130        5.5897570640
 H       -10.2569822823        0.8769035346        4.9241453774
 H       -14.4814098702        0.2828644149        7.5289155263
 H       -15.5086092998       -0.4863152633        6.4138180905
 H       -16.0630710904        0.4059154419        7.9136656334
 H       -17.7086095841        1.5606838728        5.5236457611
 H       -17.3413826576        3.2270664007        6.1853360340
 H       -17.6912976636        1.9420255976        7.2887464822
 Na       -9.6838354622        4.3871281598       -0.2944948367
