117

 C       -14.6474431845        3.0268522342        8.7306126998
 C       -15.0629409359        3.0915455335        7.2566568820
 O       -15.0134931069        4.2410512108        6.8051495323
 C       -15.6785423296        1.9194619638        6.4008624457
 C       -15.1636383114        1.6950277378        4.9468745802
 O       -15.4243344972        0.6016456181        4.4378301445
 C       -14.4592672051        2.7929671538        4.1930396869
 C       -12.9953042371        2.2011506818        4.0474472395
 C       -12.0564273168        3.3651920230        3.9389403361
 O       -12.2855552138        4.3670884238        3.2861761495
 C       -10.3606513860        3.1946069883        4.2599913841
 C        -9.8369276128        2.8397879613        2.7714637474
 O       -10.2318871171        3.5284264602        1.8542592305
 C        -8.7019091808        1.7284195299        2.6661532239
 C        -7.8801364117        1.5045895860        1.3729645274
 C        -7.1699207775        2.6817559680        0.7561470384
 O        -7.7702834353        3.4468904034        0.0415659304
 C        -5.6448475613        2.8168585672        1.0982370837
 C        -4.9755889559        1.8430378728        0.0459610373
 O        -4.4550705766        0.8875183912        0.3695432922
 C        -5.2055601352        2.3164341775       -1.4506830642
 C        -4.3459849763        1.5657585481       -2.3585584486
 C        -4.7503368372        1.4329414481       -4.0155105416
 O        -5.2957406755        0.3552581068       -4.2286033833
 C        -4.1247263471        2.5251868985       -5.0295310250
 C        -4.8097565214        3.9882810436       -4.3102398654
 O        -4.0590459025        4.7940300708       -3.8014933132
 C        -6.2116268175        4.1874973435       -4.2153958723
 C        -7.2138644495        2.9774462682       -4.3521319914
 C        -8.3207659063        3.4368651214       -5.2410285886
 O        -8.2668082814        4.1789265773       -6.1858414717
 C        -9.8828063491        2.8714905214       -4.8661850154
 C       -10.4686881989        3.5881216376       -3.5524334731
 O       -10.1329331112        3.0317360135       -2.5141991728
 C       -11.4887186730        4.8000816499       -3.8028875458
 C       -12.0747770684        5.3951921328       -2.4635105020
 C       -11.1344122992        6.4277954183       -1.9183303014
 O        -9.9447139155        6.1534963920       -2.0334767559
 C       -11.6268815588        7.5341080472       -0.9789995042
 C       -11.7818005978        6.9335532539        0.5697364327
 O       -11.2005953785        5.9464455451        1.0060690740
 C       -12.5797970069        7.7165710368        1.6139764196
 C       -10.5126713277        8.6217345271       -0.5454820004
 C       -12.9620196772        8.1623038042       -1.4896866149
 C       -10.7731188993        3.0487605967       -6.1602205916
 C        -9.6793287297        1.2893420386       -4.6204425978
 C        -2.6399827680        2.5840401266       -4.8782967527
 C        -4.6381804009        2.1809391650       -6.3913438084
 C        -5.0534629811        4.2393616905        0.8663664403
 C        -5.4031248900        2.4021026651        2.4940670044
 C        -9.7263849747        4.5861280904        4.7111382560
 C       -10.1514844971        2.1417140400        5.4589490834
 C       -15.4256225449        0.5530483863        7.2043678124
 C       -17.1979596145        2.1999861754        6.3640399267
 H       -13.6666471276        3.4340399957        8.7602643144
 H       -14.6636043472        1.9857807091        9.0484863261
 H       -15.4342481573        3.5459299635        9.4150515993
 H       -14.6233718754        3.8932842273        4.6741627113
 H       -14.8726494677        2.8364888874        3.0950273469
 H       -12.8820193354        1.6241569296        3.1735666894
 H       -12.6632660602        1.4000065608        4.7562307951
 H        -9.1732293148        0.7975623494        2.8836497857
 H        -7.9994476115        1.9564334541        3.5190031839
 H        -8.5487232083        1.0757210223        0.5878176268
 H        -7.0805965069        0.7564186623        1.4163503779
 H        -4.8788672001        3.3460536553       -1.3430572303
 H        -6.3242280921        2.3520091030       -1.6062101811
 H        -4.1074247942        0.5735731949       -1.8496195623
 H        -3.2791495935        1.9734389311       -2.2214380147
 H        -6.5932028289        5.1644549926       -4.8021129275
 H        -6.3062954456        4.6378058708       -3.1827663536
 H        -7.7405548640        2.8158965012       -3.4227093868
 H        -6.7160859617        2.0821566409       -4.6658200958
 H       -12.3466259648        4.8455523414       -4.4334019847
 H       -10.8376723732        5.5371216983       -4.2427187145
 H       -12.3089826853        4.7567286224       -1.5123199118
 H       -13.1866474809        5.6614994501       -2.6904297226
 H       -11.8561876468        8.1296758486        2.3084464594
 H       -12.9744021974        7.0538900486        2.2708751708
 H       -13.3848205916        8.2871486186        1.2031661788
 H       -10.9561281853        9.2868746809        0.1267988907
 H       -10.1879271042        9.0583926855       -1.4129508904
 H        -9.6844377995        8.0925025734       -0.0034030153
 H       -13.7997658138        7.4811502394       -1.5732624911
 H       -12.7806147916        8.6696580608       -2.3838838819
 H       -13.1795298039        9.0689795941       -0.8250052015
 H       -10.3910597449        2.4901896048       -7.0543250229
 H       -10.7577665909        4.0408127553       -6.4324687064
 H       -11.6778251513        2.7247620192       -6.0852746953
 H        -9.0752924031        0.9644856500       -5.4065622424
 H       -10.6714676482        0.8729535457       -4.6176311524
 H        -9.1094184906        0.9848113005       -3.7032124477
 H        -2.2136395281        1.6468450880       -4.7098331967
 H        -2.4729261670        3.0644238782       -3.9100173078
 H        -2.1829990192        3.2813242312       -5.6139690006
 H        -4.0933242582        2.8849196112       -7.0572528575
 H        -5.7152822408        2.3032512754       -6.5019770749
 H        -4.4553137848        1.1676688803       -6.7688647309
 H        -4.2646299704        4.4953370845        1.5773328769
 H        -5.8777090508        4.9568535754        0.9231819597
 H        -4.6569649955        4.3479654150       -0.1849984403
 H        -6.0963273754        3.0313717547        3.0951653957
 H        -4.4523250618        2.6259206370        2.9006119686
 H        -5.5156933916        1.3246706953        2.6083441050
 H       -10.1831860650        5.4330473114        4.0131418532
 H        -8.6512280088        4.7047225744        4.4163766567
 H        -9.7881494010        4.8381149706        5.7438050560
 H       -10.4521543175        2.4452440522        6.4597447300
 H        -9.1168164213        1.8410208706        5.6178211036
 H       -10.7328814335        1.2454450339        5.4578451477
 H       -14.3807802270        0.0580123704        7.1425535749
 H       -16.0433636409       -0.1906960566        6.6442479012
 H       -15.6864324242        0.6813272470        8.3150162027
 H       -17.7695925649        1.2820736440        6.5846699553
 H       -17.5144147288        2.5716590829        5.3821445479
 H       -17.4087381695        3.0879727737        7.0430659899
 Na       -9.7808365679        4.5688916053       -0.2388349785
