117

 C       -14.7670211838        3.0913273695        8.8141766202
 C       -15.0921044735        3.2025489838        7.2958724314
 O       -15.0200114718        4.2351351546        6.7017738898
 C       -15.7662880743        1.9667590758        6.5862817862
 C       -15.2431918564        1.7393292003        5.1103074933
 O       -15.2963152973        0.6358805877        4.6044856792
 C       -14.3942708348        2.8551015376        4.3132009658
 C       -13.0398344494        2.3762699852        3.9283780936
 C       -11.9153306949        3.4235004166        3.7623251786
 O       -12.1829665062        4.4394533910        3.1908654133
 C       -10.4496199876        3.2023250976        4.1538863411
 C        -9.6595928750        2.8791920077        2.8300025253
 O        -9.9221038750        3.5791587169        1.8777401635
 C        -8.5035549307        1.8552185552        2.7035039820
 C        -7.9583794210        1.4998112849        1.2864383347
 C        -7.2197897134        2.7661079431        0.6987989365
 O        -7.7270512352        3.7285055043        0.0795937986
 C        -5.7272643910        2.8540957820        1.0266684015
 C        -5.0072518340        1.8508210186        0.0484412136
 O        -4.5497463718        0.8243277808        0.4968794478
 C        -4.9795129091        2.3012612750       -1.5508430647
 C        -4.0441134569        1.4065812757       -2.3801179803
 C        -4.6535387048        1.3342697276       -3.8861596520
 O        -5.1273003136        0.3049430058       -4.3337470547
 C        -4.2205299696        2.5246100697       -4.8135793084
 C        -4.7027559274        3.8978616447       -4.3624303630
 O        -3.9456413623        4.7291494609       -3.9895324357
 C        -6.2555508477        4.1696493551       -4.2096660850
 C        -7.3250489035        2.9972408623       -4.2309258130
 C        -8.5692721916        3.4209977145       -5.1033564017
 O        -8.3164734741        4.1286732483       -6.0043117291
 C        -9.9360666311        2.7982056861       -4.9016008315
 C       -10.6247697451        3.4581531781       -3.5537897698
 O       -10.2886307791        3.0039399560       -2.4777422331
 C       -11.4564409074        4.6592902601       -3.7279398758
 C       -12.0924708101        5.3455835074       -2.5130267553
 C       -11.0367848095        6.3478332011       -1.7543942170
 O        -9.8691995571        6.1370004401       -2.0416809292
 C       -11.5952355063        7.5459105716       -0.8439379558
 C       -11.8212413200        6.8987518015        0.5133746602
 O       -11.1387929238        5.9255016570        0.7899020954
 C       -12.6185891682        7.7066490501        1.6070178665
 C       -10.5361211279        8.6382090040       -0.6325117556
 C       -12.7996378150        8.2585380079       -1.5240021177
 C       -10.7988962467        2.9888534743       -6.1826773145
 C        -9.7832021212        1.1933190283       -4.6350966591
 C        -2.6482462298        2.2773343303       -4.7864611644
 C        -4.8015023994        2.1507989038       -6.3259054926
 C        -5.1541630397        4.3391116876        0.8019307988
 C        -5.3985666632        2.3767385874        2.4780739447
 C       -10.0191303688        4.5946079878        4.5870300636
 C       -10.1663164837        2.2988745090        5.3823113348
 C       -15.4120044502        0.6141749825        7.2247134430
 C       -17.3463346992        2.3444369126        6.4041291427
 H       -14.2408155757        3.9676250780        9.0866900091
 H       -14.1747417460        2.2150532650        9.1013059619
 H       -15.7311260857        2.9809967510        9.3048555794
 H       -14.4019689244        3.8489792418        4.9165615970
 H       -14.9800570991        3.1187671633        3.4002108304
 H       -12.8907195051        1.6404199775        3.1059864672
 H       -12.7928976490        1.6647754010        4.6828470998
 H        -8.7413925735        0.9917391218        3.2426859432
 H        -7.6241006826        2.3392205944        3.2491492048
 H        -8.8419425433        1.2171825983        0.5941047401
 H        -7.2049104218        0.6799809720        1.1879330122
 H        -4.7193076424        3.3514439290       -1.5583525056
 H        -6.0454471536        2.2613721059       -1.7415444150
 H        -4.1271262064        0.3815260673       -1.9336490133
 H        -3.0142499224        1.5870209576       -2.2087692817
 H        -6.5073403481        4.7597506429       -5.1793098945
 H        -6.4390441446        5.0290170528       -3.4525203190
 H        -7.6096374443        2.5708746268       -3.2615582437
 H        -6.8658952374        2.2308019681       -4.8072472127
 H       -12.3388997280        4.5722375237       -4.3779618080
 H       -10.8133966432        5.3686706789       -4.2664342608
 H       -12.5921487487        4.5758521149       -1.7877640534
 H       -13.0879476411        5.7526277300       -2.8908587773
 H       -11.9576302433        8.0320760231        2.3804378535
 H       -13.2182021087        7.0322448544        2.2697928409
 H       -13.2779470268        8.3472529173        1.0999515440
 H       -10.8835044554        9.3146604519        0.1278504694
 H       -10.3509289207        9.0726299455       -1.5850403485
 H        -9.6619686624        8.0988177688       -0.2635779844
 H       -13.6496913020        7.5857220666       -1.6733621406
 H       -12.4081984642        8.6356121418       -2.5095377379
 H       -13.0897097187        9.1378778172       -1.0316978149
 H       -10.4153299547        2.4739321950       -7.0322082390
 H       -10.7941688554        4.0601942880       -6.4962936229
 H       -11.8618715112        2.6047019213       -6.0377092947
 H        -9.2349923425        0.8175003495       -5.4991151237
 H       -10.7750985123        0.7373014143       -4.5449241487
 H        -9.0825359677        0.9114130500       -3.8161253509
 H        -2.4331628868        1.2902359400       -4.4528313648
 H        -2.0934508633        2.9984485867       -4.0272909023
 H        -2.3221784597        2.6325423376       -5.7675568331
 H        -4.1220281924        2.7605940553       -6.9569425870
 H        -5.8668337607        2.4110496825       -6.5273761422
 H        -4.6912921892        1.1363088616       -6.6392804441
 H        -4.3379011880        4.5392928909        1.5488894499
 H        -5.9747518295        4.9867893336        0.9684105625
 H        -4.8007437071        4.5731355466       -0.1444754422
 H        -5.6399125523        3.1171750609        3.3172866057
 H        -4.3172617031        2.1422597216        2.7076763909
 H        -5.7907062048        1.3894056340        2.5626367707
 H       -10.2306705233        5.2773898326        3.7598324942
 H        -8.9046377451        4.6492067196        4.6073041932
 H       -10.3205424561        4.9802543767        5.6082141404
 H       -10.6438028235        2.5197542118        6.4251677466
 H        -9.0484477467        2.2931875640        5.6745603039
 H       -10.5551333186        1.3064313046        5.3565670288
 H       -14.3276337656        0.4946855286        7.3158726732
 H       -15.6484290203       -0.1419909905        6.4184029898
 H       -15.8383749788        0.4624444656        8.2392735331
 H       -17.9507096619        1.5869459362        6.7090590071
 H       -17.5162151780        2.5190783158        5.2886777199
 H       -17.5565921224        3.2964504880        6.8457279491
 Na       -9.8475135063        4.4586108419       -0.3050990739
