117

 C       -15.4700517343        3.7135935867        9.2208520087
 C       -15.4579336179        3.6732870424        7.6608758461
 O       -15.2151055918        4.7221716204        7.1040597605
 C       -15.8220122993        2.3407250211        6.7701942940
 C       -14.6932891062        2.0150872010        5.7346255262
 O       -14.6180981523        0.9148706401        5.1807282760
 C       -13.7344996893        3.1572080280        5.1709069366
 C       -13.0945166274        2.6173319819        3.8299647070
 C       -12.1355440673        3.5893562533        3.3253602036
 O       -12.4644575533        4.4621643856        2.5785032493
 C       -10.6030596421        3.6853294601        3.8917829285
 C        -9.5789298763        3.5705283315        2.6541359970
 O        -9.3540942879        4.4988139724        1.8676761257
 C        -8.7343437335        2.1644868746        2.4872919280
 C        -7.7251912997        2.0915857862        1.2764164392
 C        -6.9174566542        3.1340751375        0.6374992124
 O        -7.2545340141        3.7529258805       -0.3475758829
 C        -5.3159683219        3.1158262616        0.9806656632
 C        -4.8357619808        1.8348131897        0.0162414789
 O        -5.1485335958        0.7709716047        0.3266619643
 C        -4.4940435146        2.1724216808       -1.4348840427
 C        -4.0157007829        0.9334738007       -2.1981035501
 C        -4.6219032816        0.6396471076       -3.6957480096
 O        -5.2723608438       -0.2903170967       -3.9158123376
 C        -4.4469952238        1.7951636003       -4.7817994139
 C        -4.8979628016        3.1598689497       -4.3867984643
 O        -4.2104090852        3.7595936971       -3.5637619732
 C        -6.1511687793        3.7947229124       -4.8812176948
 C        -7.3059181217        2.9031153076       -4.3788382484
 C        -8.8291236206        3.3283369246       -4.6813282420
 O        -8.9677293779        4.3928651786       -5.1968053094
 C        -9.9307927654        2.3775808898       -4.4039514759
 C       -10.8861027330        3.2182421850       -3.3527950792
 O       -10.8500433943        3.0186252477       -2.1623777492
 C       -11.6189641544        4.3831861117       -3.9680140030
 C       -12.0046873670        5.3587273051       -2.8641748770
 C       -10.8471110287        6.1734840355       -2.1295542471
 O        -9.6346650480        5.9894762858       -2.1388394680
 C       -11.3693433185        7.4199582510       -1.2668287179
 C       -11.8070153994        6.7558658834        0.0631301675
 O       -11.7455685224        5.5369185190        0.1486674372
 C       -12.3723909629        7.5675335031        1.1661669798
 C       -10.1098799683        8.1998414196       -0.8720365069
 C       -12.3587221263        8.3683797540       -1.9853992199
 C       -10.7496545088        2.2404645064       -5.7769678618
 C        -9.5594267524        1.0142613219       -3.9237509995
 C        -2.8202543939        1.8477471683       -5.1197976753
 C        -5.1697009238        1.5025183907       -6.1543005821
 C        -4.7957686966        4.5345773250        0.5303602052
 C        -4.9260447297        2.9051989918        2.3803960096
 C       -10.5329730017        5.1548915993        4.5067936592
 C       -10.3947048067        2.6118758827        4.9211094951
 C       -16.0959370086        1.1606191647        7.7404644568
 C       -17.2550612519        2.7076215473        6.1224760545
 H       -15.9824857485        2.9368687312        9.7124726599
 H       -15.8983071691        4.6397380810        9.4232991896
 H       -14.4605530904        3.4180957377        9.6283169717
 H       -12.9741831995        3.3396567489        5.9568372041
 H       -14.1802241056        4.1036936903        5.2291198948
 H       -13.8447407727        2.3844673171        3.0993917193
 H       -12.4185647705        1.7042532468        3.9708406968
 H        -9.4098105419        1.3126531961        2.1187956090
 H        -8.3215306755        1.7504899776        3.3997434148
 H        -8.4219490071        1.6021654670        0.5974144478
 H        -6.9995349770        1.3521284756        1.6425801207
 H        -3.7566987982        2.9388122547       -1.4904958648
 H        -5.2886175150        2.6701152617       -1.9094543577
 H        -4.3293772369        0.0913833764       -1.6853907376
 H        -2.9957192575        0.8735643147       -2.5040019919
 H        -6.0587996378        4.0109359810       -5.9046971205
 H        -6.2374237878        4.7034327913       -4.4371341011
 H        -7.2066698455        2.6871307501       -3.3038665498
 H        -7.1260136032        1.8495613779       -4.7515636968
 H       -12.4479539880        4.0873529714       -4.6515394730
 H       -10.8634921303        4.9842160511       -4.5796430456
 H       -12.4310041589        4.7888532356       -2.1434246344
 H       -12.7315624454        6.0736872438       -3.2442365381
 H       -11.5607454511        7.9189839239        1.9415193535
 H       -13.0693461737        7.0428150994        1.8011136888
 H       -12.7618937460        8.5135644193        0.6940371159
 H       -10.3761572043        8.9678754818       -0.1595089990
 H        -9.7982228714        8.7068797653       -1.7607425106
 H        -9.2968143198        7.4269086613       -0.5703681413
 H       -13.3553088493        7.9905268061       -2.1728089484
 H       -11.8969646266        8.5821350084       -2.8893790374
 H       -12.4670774974        9.3036453421       -1.3348592061
 H       -10.1893785469        1.5556800429       -6.4516741087
 H       -10.9759688475        3.1993645723       -6.4140771054
 H       -11.7728965142        1.8239373979       -5.5724343304
 H        -8.9901693215        0.5011119958       -4.6677425582
 H       -10.4555416328        0.3604999903       -3.8269086643
 H        -9.0119413948        1.0865489206       -2.9203363306
 H        -2.5274659700        0.9376768651       -5.4694485426
 H        -2.2731613942        2.3289003156       -4.2656594775
 H        -2.6895190776        2.6157094440       -5.9599269931
 H        -5.1948560733        2.4399354459       -6.7143245053
 H        -6.1337518542        0.9851877461       -6.2014377204
 H        -4.3843607918        0.9634643610       -6.7456898045
 H        -3.7509916853        4.7236042036        0.7693914038
 H        -5.3224526228        5.3486644240        0.9738405638
 H        -4.8006897240        4.6598959089       -0.5375978431
 H        -5.4759012011        3.3127064419        3.2992935201
 H        -3.9617941309        3.4750078905        2.4543476375
 H        -4.6600950282        1.8629774615        2.6924837796
 H       -11.3233509023        5.8277193046        3.9977157241
 H        -9.6119396419        5.6785320840        4.3188571919
 H       -10.6780842244        5.1356097645        5.5444914865
 H       -11.1538964369        2.6197466576        5.8032620677
 H        -9.4792818810        2.7129745078        5.5837869618
 H       -10.2753953323        1.6051128114        4.5527122031
 H       -15.2979371305        1.0775388347        8.4160567475
 H       -16.2715242588        0.2490029906        7.2763651872
 H       -17.0431803663        1.2742224593        8.1743556693
 H       -17.6353231117        3.3735019875        6.8113160423
 H       -17.8261601516        1.8060440960        6.0681960261
 H       -17.1649453318        3.2529655422        5.1977697950
 Na       -9.5479886449        4.2024120379       -0.4513751910
