117

 C       -15.5373425726        3.8205644334        9.2852542519
 C       -15.4866886212        3.7497960138        7.6965352832
 O       -15.1844395879        4.7879970314        7.1351718277
 C       -15.8775284503        2.4760461868        6.9146826815
 C       -14.7253723271        2.0460545063        5.7285333454
 O       -14.5669823826        0.9112759650        5.4477761958
 C       -13.6735025607        3.1062213784        5.3396215146
 C       -13.0634010174        2.6342742872        3.9634604627
 C       -12.1432815223        3.6965821154        3.2188003313
 O       -12.5225034820        4.5128616637        2.4532899033
 C       -10.5594445785        3.6883517191        3.7506917581
 C        -9.4703602909        3.5739281801        2.6255284692
 O        -9.2388008776        4.5481810620        1.9068497693
 C        -8.6907760474        2.3602165328        2.5289602553
 C        -7.9086396504        2.0255536263        1.1521596928
 C        -6.8529862690        3.1566180799        0.6557217650
 O        -7.2933694070        3.9279681842       -0.2294905300
 C        -5.3059159467        3.1541728399        0.8498935593
 C        -4.9148355734        1.8982117709       -0.0163878202
 O        -5.1219595061        0.7945349855        0.5494647945
 C        -4.4296471284        2.0205582317       -1.4608150592
 C        -4.0028549096        0.7193805969       -2.1880530604
 C        -4.6429587750        0.7180707853       -3.6120442912
 O        -5.4292635684       -0.2338772098       -3.8819981764
 C        -4.4025054253        1.7489606831       -4.7879160458
 C        -4.8191851365        3.2230413313       -4.3050900156
 O        -4.1370624175        3.7749313779       -3.4677912463
 C        -6.1359901177        3.6778582044       -5.0117481079
 C        -7.3398615700        2.8176096219       -4.4526899878
 C        -8.7091324774        3.3779293606       -4.7824608449
 O        -8.9583164591        4.5073454118       -5.0835945666
 C       -10.0262032464        2.2034630301       -4.4083693328
 C       -10.8555215884        3.1528390960       -3.3913236554
 O       -10.7502448689        2.9629458405       -2.1636690640
 C       -11.5814548461        4.2939848282       -3.9586589383
 C       -12.0588066142        5.4800073984       -3.0034961363
 C       -10.8808634356        6.2340912226       -2.2545265062
 O        -9.7624875857        5.8241557108       -2.3218355496
 C       -11.2389478922        7.4090070938       -1.2931698016
 C       -11.8644987367        6.6808384872       -0.0451990892
 O       -11.7804800011        5.4645104215        0.0536510854
 C       -12.3555117827        7.6880187257        1.1044800725
 C        -9.9704328924        8.1356954462       -0.7640500720
 C       -12.2923056160        8.3638833222       -1.9441166219
 C       -10.7472834678        1.9589244235       -5.6643090843
 C        -9.6668871928        0.9596220438       -3.6909216971
 C        -2.9102544365        1.7657536166       -5.2076023468
 C        -5.0877375211        1.2485152721       -6.1767790531
 C        -4.8884800794        4.6205471181        0.3482931337
 C        -4.9682757951        2.7911775710        2.3709712789
 C       -10.4627663737        5.0978524745        4.4354930374
 C       -10.4222332826        2.7619706623        5.0105228984
 C       -16.1545624154        1.1958446648        7.7043423308
 C       -17.2302790769        2.7588012366        6.0118822793
 H       -16.0826274226        3.0715814949        9.8921089651
 H       -15.9230383615        4.8712585334        9.4338032819
 H       -14.5985997677        3.5480197969        9.6507863347
 H       -12.9982241278        3.2481715709        6.2492331190
 H       -14.1272147851        4.2430877205        5.4013529390
 H       -13.9561975339        2.6589461609        3.3479093521
 H       -12.5711417896        1.6877174362        3.8711926088
 H        -9.2261253182        1.4995999955        2.8693315915
 H        -7.8925264739        2.4577650390        3.3651895189
 H        -8.7620207898        2.0200413712        0.4981284032
 H        -7.5582831669        1.0132888418        1.2471049918
 H        -3.7787196822        2.8202822359       -1.7472920449
 H        -5.3600662565        2.3766803575       -1.9684618134
 H        -4.4269543224       -0.2016197161       -1.7576223640
 H        -2.8757392855        0.6351646666       -2.3991114319
 H        -5.9215273439        3.7166772414       -6.0373704272
 H        -6.3447230910        4.6936941299       -4.6065977903
 H        -7.2417151127        2.6072392166       -3.3672072771
 H        -7.3677859045        1.7898166318       -4.7912627825
 H       -12.5548663765        3.9296936340       -4.2757859036
 H       -11.0777414171        4.7244054202       -4.8539616360
 H       -12.7126697974        5.0325653677       -2.2650957605
 H       -12.6169913995        6.1114594714       -3.6786305396
 H       -11.4363373091        7.9294044766        1.7053041621
 H       -12.8999663065        7.0733102322        1.8967341563
 H       -12.8126686029        8.6383524018        0.8381801218
 H       -10.2612588084        9.0341147816       -0.1421810159
 H        -9.4953274859        8.5409271815       -1.6831560797
 H        -9.3288496798        7.3638727728       -0.3381678673
 H       -13.2842342750        7.9042491116       -2.0679908960
 H       -11.9484568001        8.8067975418       -2.9028519657
 H       -12.4098960617        9.0816563069       -1.1849093311
 H       -10.1148322024        1.5325942984       -6.3138205792
 H       -11.0486883846        2.8631480860       -6.0851173796
 H       -11.7042632518        1.3392449829       -5.6542090035
 H        -9.0860884470        0.3977791631       -4.4006103404
 H       -10.4763253817        0.2649625522       -3.4636937855
 H        -9.0739799497        1.2095321299       -2.7738926483
 H        -2.5331981075        0.7597685498       -5.3880584284
 H        -2.3346426128        2.4428294342       -4.5900811092
 H        -2.8986715421        2.1908515164       -6.1585698144
 H        -5.0134007686        2.0437569978       -6.9431423969
 H        -6.1423134336        1.1839646132       -5.8856605794
 H        -4.6988065559        0.3317872762       -6.5850044965
 H        -3.8842011316        4.8948458398        0.8085673565
 H        -5.5058256572        5.3718149959        0.8087551695
 H        -4.7279673041        4.8381641077       -0.6639943833
 H        -5.4546652474        3.3941061481        3.1761211385
 H        -3.8807567800        2.8425836573        2.6585854938
 H        -5.2801383346        1.8078687217        2.6086155008
 H       -11.3105393362        5.6810859749        4.2344388138
 H        -9.6198677392        5.6547104991        4.1412442393
 H       -10.4585065452        4.9747306190        5.5544908437
 H       -11.0785178335        2.9572105257        5.8603470192
 H        -9.4540111548        2.7179041694        5.4729394630
 H       -10.4858378388        1.7576633613        4.7548353031
 H       -15.6051356402        1.1573025284        8.5749012443
 H       -15.8426784915        0.3388431779        7.1329874032
 H       -17.1187013188        0.9041646854        7.8726324666
 H       -17.7780296825        3.5697890365        6.3669653893
 H       -17.7442200330        1.7525003298        5.9654013239
 H       -16.8357759558        3.0457436637        5.0419903322
 Na       -9.5324873049        4.3617290856       -0.5393972664
