117

 C       -15.8334643383        4.0323419603        9.3040602855
 C       -15.5679323639        4.0068617512        7.7245333043
 O       -15.2237410575        5.0157396431        7.1883554641
 C       -15.7876551758        2.6159829015        6.8741598986
 C       -14.5054524695        2.1000291622        6.0474186611
 O       -14.1405470083        0.9676322137        5.9123456789
 C       -13.6765749105        3.2530415828        5.4187368343
 C       -12.8671266379        2.7002540993        4.1692490415
 C       -11.9702552888        3.7564176931        3.4705175777
 O       -12.2340293421        4.3779576703        2.4985939637
 C       -10.5014681017        3.9001676824        3.8890942311
 C        -9.6276538135        3.8410024629        2.5289479766
 O        -9.7887048123        4.6910412371        1.6753998569
 C        -8.6344243002        2.6786404161        2.5335080431
 C        -8.0807267116        2.2705622334        1.1403036319
 C        -7.0537724409        3.3285819381        0.5634535600
 O        -7.4079824173        4.2727292028       -0.1218811556
 C        -5.6096621905        3.0383621037        0.7166772065
 C        -5.0184533201        1.7258074558        0.0177871123
 O        -4.8729159485        0.6248277393        0.5041791222
 C        -4.5779489875        1.8836163795       -1.4138393102
 C        -4.1404307745        0.6201110885       -2.1901925635
 C        -4.9123417164        0.5927288691       -3.5538682934
 O        -6.0332315579        0.0848219821       -3.5022426346
 C        -4.2564841162        1.4088383418       -4.8160903229
 C        -4.8005751652        2.9011749329       -4.6454654599
 O        -3.9877284860        3.7177803042       -4.2518885112
 C        -6.3004718870        3.2561393636       -5.0614121998
 C        -7.3538528775        2.5670834915       -4.2658947521
 C        -8.7646859688        3.1791233294       -4.5714576088
 O        -8.9182302805        4.1062468155       -5.2622107047
 C       -10.0252279701        2.1426715854       -4.0533985868
 C       -10.8542214639        3.2849831564       -3.2196771233
 O       -10.7505664017        3.4164981316       -2.0084514329
 C       -11.8333303193        4.1244817306       -4.0563440003
 C       -12.1680911092        5.4995664787       -3.3008676001
 C       -10.9067639105        6.1464199931       -2.5402740157
 O        -9.7667064880        5.8743452373       -2.8266799238
 C       -11.0867152362        7.2328580872       -1.4456253155
 C       -11.7655643319        6.5693080607       -0.1900641666
 O       -11.7264581687        5.3764236587       -0.0076489474
 C       -12.4494784056        7.3627613284        0.8748437117
 C        -9.6166557159        7.7185673883       -1.1649994829
 C       -11.9305412802        8.4200073953       -2.0136681327
 C       -10.6951716764        1.7871006117       -5.3709407902
 C        -9.4911569299        0.9385471701       -3.1872656410
 C        -2.7605837363        1.4762367911       -4.5914968376
 C        -4.6218725801        0.7277966810       -6.2046241175
 C        -4.7256078162        4.1845418274        0.1596514742
 C        -5.3901893181        2.9260168657        2.2563780731
 C       -10.3065503433        5.2980576403        4.4535020736
 C       -10.0771105500        2.9610965764        5.0620749770
 C       -16.4499221289        1.5987595871        7.8342053450
 C       -16.8652061955        2.9873542597        5.7970173917
 H       -16.8157554998        4.1781808485        9.6925628310
 H       -15.2336557366        4.8954441273        9.5355246427
 H       -15.5658242270        3.0979742709        9.7887466740
 H       -13.0429655531        3.7239904952        6.0709324813
 H       -14.4737760103        4.0512764607        5.1240342686
 H       -13.6243729378        2.5432770093        3.4028118660
 H       -12.2298544116        1.7939818543        4.4481580070
 H        -9.2710190044        1.9302628102        3.0980009589
 H        -7.7752913607        2.8230079810        3.2062305400
 H        -8.9791439952        2.3232275795        0.4783440841
 H        -7.7422962202        1.2061707599        1.1427290516
 H        -3.7904205677        2.6617748149       -1.4878183605
 H        -5.4589437688        2.3237668409       -1.8838293121
 H        -4.4509007104       -0.2207889673       -1.6507245300
 H        -3.0687822869        0.6704824381       -2.1445892154
 H        -6.3539361911        2.8637785654       -5.9941765230
 H        -6.2929978400        4.3100364223       -5.0757468671
 H        -7.1953207457        2.5751661425       -3.1765485013
 H        -7.2271021297        1.4505401096       -4.4203151964
 H       -12.8717094237        3.7060467516       -4.0468905544
 H       -11.4383198858        4.3318798950       -5.1272765541
 H       -12.8360511741        5.2071162821       -2.5787529337
 H       -12.6636747601        6.0553610835       -4.0698408854
 H       -11.9487059626        8.3241387088        1.1615702148
 H       -12.6169462482        6.5786234609        1.6517376610
 H       -13.3996179311        7.7309242933        0.5705482770
 H        -9.6683332818        8.6021148637       -0.5481219631
 H        -9.1109860888        7.9872102435       -2.0432952842
 H        -9.0855740537        6.8774404542       -0.6721033268
 H       -12.9415146923        8.1025147733       -2.2856435861
 H       -11.4309706560        8.8005848993       -2.8782777498
 H       -11.9430449003        9.2529622595       -1.2791677147
 H       -10.1968455804        1.1620503110       -6.1070484732
 H       -10.9296344416        2.8246520072       -5.7783116834
 H       -11.8275444749        1.2797533790       -5.2572307453
 H        -8.9628198917        0.2535022605       -3.7706153791
 H       -10.3673274341        0.4789779029       -2.7026854620
 H        -8.9657643996        1.3413361707       -2.2697431495
 H        -2.3409862438        0.4910501621       -4.6931940618
 H        -2.6190703848        1.9408767904       -3.5448310221
 H        -2.2234777021        2.0612377967       -5.3799602199
 H        -3.9968364606        1.0219580080       -7.0957375902
 H        -5.6609225136        0.9207176595       -6.5173701583
 H        -4.3515678809       -0.2986943107       -5.9464403235
 H        -3.6312752480        4.1353711313       -0.0249376511
 H        -4.7269886813        5.0076473732        0.8426437737
 H        -5.1551792696        4.6019696538       -0.6975245151
 H        -5.9354240792        3.7158177293        2.8711430128
 H        -4.3150615352        2.7509429574        2.5040902169
 H        -5.9117314087        2.1155221468        2.7252176600
 H       -11.1165034492        5.9655823752        4.0884382279
 H        -9.2827496773        5.6010508729        4.2403663899
 H       -10.5835349771        5.3811534294        5.5383069127
 H       -10.8941624372        3.1436650178        5.8915169641
 H        -8.9869090254        3.2137682390        5.2982630086
 H        -9.8934622042        1.8736443692        4.9633436438
 H       -15.9578671467        1.0049990757        8.5993209844
 H       -17.0329882550        0.8598067949        7.1745106566
 H       -17.3157249676        2.0855299774        8.3351238599
 H       -17.7689355286        2.8601803950        6.2119272164
 H       -16.7203818800        2.2857456826        4.9448314838
 H       -16.7244312288        4.0372093625        5.5660250600
 Na       -9.8095927123        4.6996944096       -0.5627780423
