117

 C       -15.8333861587        4.1048195097        9.2341753594
 C       -15.5177205287        4.0511340280        7.7482865572
 O       -15.2109932767        5.0791870005        7.1633110021
 C       -15.8928268397        2.7724273124        6.9002297360
 C       -14.3617685776        2.2539677354        6.2187735249
 O       -14.1081272452        1.1024639519        6.1779370416
 C       -13.6112597666        3.3500195591        5.3261253131
 C       -12.7237328367        2.6035125145        4.2136704714
 C       -11.9536353283        3.7247433638        3.4836139226
 O       -12.4195872844        4.4005444797        2.5648535767
 C       -10.4263839006        4.0760561863        4.0646843271
 C        -9.7090758149        3.7915760420        2.7006110553
 O       -10.0357166440        4.6184186341        1.8760766826
 C        -8.7809659759        2.6539412486        2.4058399533
 C        -8.0988793483        2.3235447083        0.9994576878
 C        -6.9354732602        3.2498049730        0.4318320714
 O        -7.3145303117        4.2562483284       -0.2172616839
 C        -5.4199115215        3.0692963770        0.7071538978
 C        -4.9697475888        1.7843667211       -0.0356526191
 O        -5.0417584420        0.7156788576        0.6332899969
 C        -4.6456553389        1.8937649556       -1.6448532903
 C        -4.2892439880        0.4620936723       -2.1959945675
 C        -4.9706302409        0.5199510141       -3.5025388851
 O        -6.2046624663        0.1702057019       -3.5342204041
 C        -4.1771120530        1.2066763888       -4.6696615163
 C        -4.7559809347        2.8722484665       -4.7592700790
 O        -4.0274851766        3.7629246802       -4.4719605015
 C        -6.1707116162        3.0820570830       -5.2593754197
 C        -7.2470036040        2.5919365824       -4.2824145373
 C        -8.6348616265        2.9562524992       -4.5708287797
 O        -8.9827727658        3.8955247952       -5.3395282373
 C        -9.9639288602        2.2916939584       -3.9406601534
 C       -10.9090530563        3.2914092647       -3.2700464342
 O       -10.8622543670        3.3041732053       -2.0066790362
 C       -11.7968883745        4.1915756327       -4.0317669030
 C       -12.1365773478        5.4603673222       -3.1985890244
 C       -10.8543087173        6.1702023230       -2.7105295548
 O        -9.7762952477        5.7927548971       -3.1048384693
 C       -11.0627741818        7.2298029442       -1.5855222290
 C       -11.7725249390        6.5551488269       -0.2447390390
 O       -11.8549697506        5.3589000101       -0.1263869056
 C       -12.5817350563        7.5019806307        0.7815082024
 C        -9.6598878846        7.6331637819       -1.1049099705
 C       -11.8956376060        8.4556916543       -2.0505433967
 C       -10.6957038767        1.6733280081       -5.2086732470
 C        -9.7812844418        1.0610945565       -3.0394068179
 C        -2.7250218337        1.2727649765       -4.4269624825
 C        -4.4800881948        0.6787489385       -6.0614593053
 C        -4.7512709393        4.3088144496        0.2619186564
 C        -5.3235760704        2.8432553199        2.2810275491
 C       -10.3473526942        5.5078385968        4.5892823353
 C        -9.9501469188        3.0677541557        5.1950212438
 C       -16.4155664371        1.5476339056        7.6766480983
 C       -16.8001109395        3.1119490306        5.7224512831
 H       -16.7445192127        4.7089186628        9.4451034251
 H       -14.9855817761        4.6743796470        9.6906304578
 H       -16.0468780918        3.1930129265        9.6417416120
 H       -12.7894765568        3.7889889019        6.0323758202
 H       -14.3533193263        4.2415483072        5.0024646843
 H       -13.4016374333        2.1137829714        3.5066687870
 H       -12.0525751142        1.9748850962        4.7675156205
 H        -9.3841157111        1.8600195124        2.8311754707
 H        -7.8729468936        2.7153737106        3.1641937177
 H        -8.9227824089        2.3726260126        0.2625687614
 H        -7.8033089623        1.2562465297        1.0228312417
 H        -3.8997921278        2.6684501896       -1.6334970125
 H        -5.5548009059        2.2281409588       -2.1081486097
 H        -4.5303293785       -0.1693912192       -1.3724054382
 H        -3.2471765079        0.3693517623       -2.4023994910
 H        -6.2710162585        2.7060814415       -6.2259265104
 H        -6.0876430766        4.1301876938       -5.2297412644
 H        -7.0240076924        2.8711791377       -3.2129527551
 H        -7.2788084759        1.4929627652       -4.1628723741
 H       -12.7448542075        3.7045763226       -4.4055318313
 H       -11.0841444324        4.4907282430       -4.8461969372
 H       -12.7038065562        5.1049269398       -2.3823449193
 H       -12.6460204905        6.0673176217       -3.8227537099
 H       -12.1883530587        8.5175825555        0.8022729564
 H       -12.5497553824        6.8952451262        1.7700824563
 H       -13.6680497501        7.6715177159        0.5434966053
 H        -9.6469899813        8.4113539986       -0.2735661040
 H        -9.2446599745        8.1360591926       -2.0306673847
 H        -9.0589700040        6.7952590022       -0.8935609070
 H       -12.9193392510        8.1517775280       -2.3011972337
 H       -11.3997803538        8.8971794423       -2.9684348200
 H       -11.8497381669        9.2020170664       -1.3565565182
 H       -10.3362423486        0.6431177104       -5.5650278830
 H       -10.8129596571        2.3310043408       -6.0608884100
 H       -11.6916479212        1.4765058839       -4.8877770010
 H        -9.2223627698        0.2961873974       -3.6710755843
 H       -10.8173691726        0.7393999929       -2.8397030033
 H        -9.4117724074        1.1886458570       -2.0197879404
 H        -2.2936407886        0.1691641334       -4.5145846480
 H        -2.4850080233        1.7861962105       -3.5229087588
 H        -2.2786366001        1.7438154144       -5.2609806479
 H        -4.0953273562        1.3361485619       -6.9029120460
 H        -5.5677806193        0.7388148514       -6.2481159649
 H        -4.0141607591       -0.2843734616       -6.1181406530
 H        -3.6759379482        4.3511710167        0.2321971032
 H        -4.9559010314        5.1126098873        0.9270396890
 H        -5.0872460555        4.6799672855       -0.6579005246
 H        -6.1458146941        3.2839848506        2.8616561893
 H        -4.2862103034        3.0082522299        2.7194420907
 H        -5.5594521306        1.7923705629        2.6114874138
 H       -10.7014188805        6.2221833335        3.9647130983
 H        -9.3743476232        5.6722928827        5.0160733532
 H       -11.1899241327        5.5599836349        5.3447905169
 H       -10.6201634050        3.0513017640        6.0046786844
 H        -8.8918427653        3.3002137635        5.4182087249
 H        -9.7570277043        1.9885421830        4.8507751606
 H       -15.7551066083        0.9306048506        8.2073749356
 H       -16.8670399419        0.8991770649        6.9745676602
 H       -17.1466346625        1.7695341370        8.3880324828
 H       -17.7860324629        2.7617415841        6.0946111560
 H       -16.5363737550        2.5212886649        4.8842886273
 H       -16.7931498418        4.1279162386        5.5704780075
 Na       -9.5924529613        4.6600685670       -0.5514838082
