117

 C       -15.8952747959        4.1227718598        9.1886832011
 C       -15.5325145512        4.2172262237        7.6497513476
 O       -15.0621742278        5.1896715369        7.1263131737
 C       -15.7891732276        2.8385408806        6.8040128924
 C       -14.3658386861        2.4742341676        6.4441280707
 O       -13.7543066496        1.6254331652        6.9944423353
 C       -13.5833944613        3.4645582910        5.4585801655
 C       -12.4785060079        2.6332768832        4.6670476326
 C       -11.8905923015        3.7877024769        3.7673160227
 O       -12.6409715832        4.4636821104        3.0541056751
 C       -10.2987470132        4.0516346195        3.9561172023
 C        -9.5535076251        3.8802385868        2.6206728180
 O        -9.6737826937        4.7534022305        1.7123165645
 C        -8.6125708041        2.7076070890        2.5327423277
 C        -8.0749996051        2.3489793969        1.1257530986
 C        -6.9682242626        3.3896101949        0.6026815372
 O        -7.1597197083        4.0771718588       -0.4029080491
 C        -5.4914091857        3.2629040526        1.0156641539
 C        -5.1233852945        1.9219513252        0.2028445713
 O        -5.4951851783        0.7861663488        0.6746437195
 C        -4.6118821202        1.9789113862       -1.2904501913
 C        -4.9319835623        0.5808111382       -2.0309411895
 C        -5.2056360071        0.3495999546       -3.5640460539
 O        -5.9399987872       -0.5427317162       -3.9200039506
 C        -4.2272145854        1.0011079584       -4.6720027901
 C        -4.7885825695        2.4450931550       -4.8491056191
 O        -4.1028771519        3.4028183861       -4.8170511148
 C        -6.4303338850        2.6927709077       -5.2535350381
 C        -7.4034789477        2.6334190110       -4.1670177519
 C        -8.8345701443        2.7959921944       -4.6531835416
 O        -9.1066246241        3.4109585842       -5.6894104089
 C       -10.0411194308        2.1540684538       -3.9306072375
 C       -10.8309896445        3.3208446669       -3.3292980720
 O       -10.8889726416        3.3254027738       -2.1088421132
 C       -11.7241237804        4.2582199815       -4.1700455295
 C       -11.9719455807        5.4911997896       -3.4218733836
 C       -10.7691944057        6.2479407359       -2.7114996816
 O        -9.6433614602        5.8765804202       -2.9322954174
 C       -11.1277901054        7.3667885103       -1.7110137434
 C       -12.0091924939        6.7477585145       -0.5237231203
 O       -11.6884185733        5.6065318054       -0.2506838249
 C       -12.9101942118        7.6359357594        0.3949895732
 C        -9.7994005473        7.8014320126       -1.1010268123
 C       -11.7651284429        8.6026396442       -2.5100595938
 C       -10.9570820089        1.2716003812       -4.9964264764
 C        -9.4073294215        1.1705645272       -3.0011981917
 C        -2.7246087115        1.2030761960       -4.2083394912
 C        -4.2435124306        0.0958941725       -6.0214517618
 C        -4.6517048198        4.3956223954        0.4188371940
 C        -5.3716182035        3.0038184402        2.4813676514
 C       -10.3469035822        5.5905497084        4.1815164648
 C        -9.6280672772        3.2230546527        5.0998782911
 C       -16.6897373551        1.8192278931        7.4677048228
 C       -16.6726463740        3.3002029608        5.6181497033
 H       -15.7292223412        5.1412359419        9.6184110985
 H       -15.1323601599        3.3977390888        9.6385451178
 H       -16.8420849185        3.8166810164        9.4335776936
 H       -13.1478676271        4.1869311318        6.0443521517
 H       -14.2288757439        3.7502130556        4.6229207105
 H       -12.9050700723        1.7865407430        4.1041872420
 H       -11.7490291384        2.3509146112        5.4624210002
 H        -9.1659815357        1.9234417126        2.9688121316
 H        -7.8868723112        2.9851404089        3.3180847070
 H        -8.9956101089        2.2947696971        0.5422354927
 H        -7.7644995348        1.2723894936        1.0972052008
 H        -3.5046848223        2.1357710018       -1.3634707508
 H        -5.3124524355        2.7682416328       -1.6881083919
 H        -5.6203727232        0.0512152864       -1.3730175778
 H        -3.9790346419        0.1052153474       -1.7300521029
 H        -6.5748565104        1.7943805280       -5.7427093874
 H        -6.6291195861        3.5529408815       -5.9498176685
 H        -7.2638330297        3.5189100146       -3.5149883536
 H        -7.3523258563        1.8435745296       -3.3977909301
 H       -12.5579140308        3.5515027681       -4.3106077884
 H       -11.1217532900        4.4538999083       -5.1129291890
 H       -12.6181926326        5.0847931798       -2.6167070182
 H       -12.4776402923        6.1760462443       -4.1100307702
 H       -12.6357213971        8.6383987194        0.4456440113
 H       -12.9412067424        6.9780828041        1.2862998261
 H       -13.9025929147        7.6700975215        0.1265969618
 H       -10.0617887035        8.4036549761       -0.2413660360
 H        -9.1968622989        8.3453332347       -1.7972204400
 H        -9.2912544224        6.9635858472       -0.6806645175
 H       -12.8022779674        8.4290299005       -2.8656018799
 H       -11.1202794256        8.8434296478       -3.3714343707
 H       -11.6929571036        9.4736248560       -1.9157461189
 H       -10.2907686574        0.5560038524       -5.6795800087
 H       -11.3341794076        1.9239115815       -5.8270988409
 H       -11.8028054307        0.7041496435       -4.5379882456
 H        -8.8268544983        0.5704300160       -3.6589401681
 H       -10.0672000564        0.6213408067       -2.3922472189
 H        -8.6745023643        1.6037111792       -2.3253517943
 H        -2.2355918674        0.3473367446       -3.5814216068
 H        -2.6576666438        2.0779156615       -3.5189135765
 H        -2.1756401941        1.5065276692       -5.0717182247
 H        -4.1619318033        0.7625455756       -6.8937473165
 H        -5.3041489514       -0.1491566853       -6.1825603223
 H        -3.6922308890       -0.7911166478       -5.9088050025
 H        -3.5319603504        4.3843273005        0.7142869341
 H        -4.9483296450        5.3571789788        0.8441631372
 H        -4.6424994583        4.6392204544       -0.6255783707
 H        -5.4906136838        3.8028315752        3.2213675343
 H        -4.3956949091        2.5682442859        2.6616624487
 H        -5.9801643967        2.2308543628        2.7851898633
 H        -9.4622200370        6.0775899511        3.8306810837
 H       -10.3773448055        5.7078287477        5.3013992694
 H       -11.2577497071        6.1027604809        3.6212680153
 H       -10.0876138515        3.3570017828        6.1010556659
 H        -8.5419035449        3.6186087537        5.1954214186
 H        -9.8236562941        2.1431970615        4.7527050440
 H       -16.5889950256        1.6944150768        8.5782617471
 H       -16.3112122563        0.7679609976        7.2270801495
 H       -17.7764653749        2.0562834767        7.5398634317
 H       -17.6264338373        3.6582520237        5.9962260661
 H       -16.8583604660        2.2839707845        5.1220112629
 H       -16.0915924422        3.9117552338        4.9380015327
 Na       -9.7388386821        4.3981952633       -0.6787579968
