117

 C       -15.9219428518        4.3238557177        9.2729462622
 C       -15.7157469094        4.3155848975        7.7514513401
 O       -15.1777992824        5.2955014924        7.2596148084
 C       -15.8598614490        2.9486441732        6.8115936224
 C       -14.3840214276        2.5534804143        6.6961590100
 O       -13.8978644433        1.8044747866        7.5397215430
 C       -13.6085595173        3.3088145440        5.5238903412
 C       -12.3358227706        2.7605143593        4.8752808065
 C       -11.7470484171        3.8334960424        3.8488921523
 O       -12.3343533905        4.3563470074        2.9669394943
 C       -10.1218814514        4.2841214401        3.8568945979
 C        -9.4699949667        3.9939471855        2.4596509650
 O        -9.4740313744        4.6489830963        1.4822363972
 C        -8.6635062654        2.6831144941        2.5435889305
 C        -8.0155675915        2.2665553464        1.2002980859
 C        -7.1162976502        3.3927300568        0.6110001558
 O        -7.4516569999        4.1205105142       -0.2970106352
 C        -5.6046443952        3.2636068908        0.9276389328
 C        -5.2638621617        1.7403179309        0.1119348539
 O        -5.4954045059        0.8195039459        0.7394805878
 C        -4.8719829785        1.8252277905       -1.3311253649
 C        -5.1615890549        0.3981442838       -1.9225261125
 C        -5.2164977570        0.0935930340       -3.4645771010
 O        -5.8898890399       -0.8576337155       -3.7984482884
 C        -4.2523683663        0.8195737305       -4.4872595104
 C        -5.0165858084        2.3299067141       -4.9275770325
 O        -4.4241752133        3.4007941204       -4.9080543975
 C        -6.3714716493        2.2053400997       -5.6340026085
 C        -7.2872159287        2.8879315055       -4.4819451763
 C        -8.8651169464        2.6293742857       -4.8955490427
 O        -9.0827516595        3.0997533790       -5.9494811035
 C       -10.0636781869        1.9865254784       -3.9878902893
 C       -10.8123321634        3.0711356442       -3.2792489143
 O       -10.9324564895        3.1001779053       -2.0783972312
 C       -11.3633168427        4.1544128932       -4.3350142944
 C       -11.7374370895        5.6417501496       -3.7561485889
 C       -10.7624575980        6.1839636749       -2.7837244712
 O        -9.6294921559        5.7532194703       -2.6039501447
 C       -11.0904170535        7.5412464870       -1.7364267238
 C       -11.9373859262        6.9409190475       -0.5451580248
 O       -11.5318957765        5.8965240898       -0.0305465003
 C       -13.1972811207        7.6683663537       -0.1802872524
 C        -9.7838800197        8.1996956261       -1.2156776707
 C       -11.8897062004        8.5337221552       -2.5812652693
 C       -10.8933154710        1.1564805239       -4.9185785112
 C        -9.5779288767        0.9892431676       -2.7715170956
 C        -2.8460519308        1.1599742011       -3.9403331280
 C        -4.1631157133       -0.0062429325       -5.8618633563
 C        -4.6306779688        4.4500083601        0.5209903378
 C        -5.1834701240        3.0351914133        2.3480229528
 C        -9.9947061494        5.8929609503        4.1145703701
 C        -9.4379165185        3.6843650083        5.1028533571
 C       -16.6850812581        1.8937480748        7.5989181694
 C       -16.6242783244        3.3700228414        5.4661134756
 H       -15.0327593640        4.6681677285        9.7212910976
 H       -16.4191517702        3.4344682507        9.6282687115
 H       -16.7197720594        5.1474863273        9.4405782141
 H       -13.2982736509        4.2942245339        6.1612771697
 H       -14.3104558896        3.3989010805        4.6672574867
 H       -12.4718552844        1.9424850960        4.1312802128
 H       -11.6827462237        2.4375189883        5.6699645230
 H        -9.1700555528        1.7687110232        3.0440641226
 H        -7.8990788949        2.9992201148        3.2394916385
 H        -8.7919451223        1.8911300956        0.5207728155
 H        -7.5547526412        1.3449167986        1.5882770652
 H        -3.8661374611        1.9431077127       -1.5807157800
 H        -5.4980296886        2.5197882502       -1.7966748392
 H        -6.0940650248        0.0413257290       -1.4915145069
 H        -4.4311176346       -0.1542182552       -1.3567645875
 H        -6.7742496512        1.1949842304       -5.8877751585
 H        -6.3633485775        2.7353819228       -6.6082381066
 H        -7.1255612580        3.9606187279       -4.3004286007
 H        -7.2240118324        2.4563637598       -3.4968793572
 H       -12.3030609301        3.6444932501       -4.6213136756
 H       -10.6770032960        4.1757460112       -5.1732667996
 H       -12.7292521352        5.7359753992       -3.4367470882
 H       -11.6036517514        6.1853068508       -4.7195638576
 H       -12.8599546163        8.7009455219        0.2015063088
 H       -13.9984201792        7.1686659050        0.3236524011
 H       -13.7183296074        7.9824024872       -1.1549660956
 H        -9.9073429381        9.1726634251       -0.7953653663
 H        -8.9663107476        8.0862945733       -1.9167824274
 H        -9.4791232869        7.6234637252       -0.2669481870
 H       -12.7391173915        8.0553818152       -3.0230865835
 H       -11.3445304727        9.0633545618       -3.3203727992
 H       -12.3397355341        9.3516439292       -1.9053959424
 H       -10.2658387488        0.7001880253       -5.5287059068
 H       -11.5581632710        1.6515207420       -5.5737615125
 H       -11.4318603886        0.3718867819       -4.3307524672
 H        -8.7848793860        0.3016407678       -3.0753691408
 H       -10.4651842611        0.3923790745       -2.3944689108
 H        -9.1043039443        1.5655566040       -1.9481894429
 H        -2.2200500057        0.4063676765       -3.6825518784
 H        -3.0354610042        1.5886535923       -2.9426520263
 H        -2.3731065163        2.0267151418       -4.5071726784
 H        -3.4606229101        0.4629172137       -6.5007899394
 H        -5.1141224460        0.0771860985       -6.4224975645
 H        -4.1580306578       -1.1322216916       -5.6346713499
 H        -3.6643495637        4.0903244789        0.3495844431
 H        -4.5419200922        5.2587619702        1.2263037108
 H        -4.8283566008        4.9112622202       -0.4311080593
 H        -5.7671988244        3.6964483316        3.0576634343
 H        -4.1463215094        3.3583538028        2.5998675873
 H        -5.2700174707        2.0024709371        2.7782062055
 H        -9.2954788550        6.0446150030        5.0205309802
 H       -10.9087245674        6.4084437798        4.2875696569
 H        -9.5681673968        6.2871440509        3.2459971466
 H        -9.9292685204        4.2114914922        5.9765820452
 H        -8.4854011210        4.1496509438        5.2152422972
 H        -9.5790860352        2.6736000378        5.2274992958
 H       -16.2050614201        1.4746191240        8.4260682169
 H       -16.8479463007        1.0329142630        7.0629617478
 H       -17.5462730153        2.2717130785        8.0413355681
 H       -17.5978400534        3.5911566770        5.7662503162
 H       -16.5954784686        2.6701790988        4.6783552891
 H       -16.0390648612        4.2353207154        5.1873147547
 Na       -9.7675343486        4.5322925005       -0.6730745954
