117

 C       -16.1511094220        4.4774961194        9.3593160536
 C       -15.7139976917        4.6588091334        7.8303060932
 O       -15.5538434961        5.7054976090        7.2807367744
 C       -15.7472681927        3.2442158775        6.9473884062
 C       -14.2689211718        3.0488917813        6.6108745834
 O       -13.6767261586        2.1201907590        7.1023294517
 C       -13.5676918896        3.8998100641        5.4264938784
 C       -11.9840305198        3.8254221302        5.7067690846
 C       -11.3762193346        3.9345200853        4.3435066886
 O       -12.0720109206        3.7955663400        3.3345722983
 C        -9.9638923709        4.5860778684        4.2891448387
 C        -9.4076937846        4.0286045899        2.9673268327
 O        -9.8213593207        4.6138569335        1.9914760158
 C        -8.5793581845        2.6483875345        2.7421639783
 C        -8.1644943786        2.2397939467        1.3190875574
 C        -7.2626325280        3.2546836769        0.7414979309
 O        -7.7081691782        4.1699664123        0.0413663089
 C        -5.7648423228        3.0759279470        0.7985370849
 C        -5.3463906405        1.5489242996        0.0297040343
 O        -4.8328710061        0.7438127305        0.7266639632
 C        -5.5872090543        1.2979376402       -1.5505638314
 C        -4.9461229665       -0.1377581884       -1.9197456560
 C        -5.1181405965       -0.2299326464       -3.4837801170
 O        -6.0802132374       -0.8204933065       -3.8533433706
 C        -4.2638876877        0.4668486141       -4.4301350703
 C        -5.1186220534        1.8105350446       -4.7980020932
 O        -4.6499225377        2.8868011572       -4.5434000592
 C        -6.5185722252        1.4847838499       -5.3064037372
 C        -7.4746001830        2.6885788150       -4.8886607608
 C        -8.9454037152        2.3349187001       -5.3303499529
 O        -9.2139089499        2.4588893047       -6.4703278879
 C       -10.0004081668        1.8991352768       -4.1055336351
 C       -10.6031114847        3.1870367150       -3.5742881831
 O       -10.6484859702        3.2938846972       -2.3984344486
 C       -10.9186796673        4.4149718500       -4.5434798574
 C       -11.6988198781        5.4562769306       -3.6521710673
 C       -10.6419044097        6.2210148289       -2.9274909983
 O        -9.4960052480        5.8446051388       -2.6981587427
 C       -11.1296179287        7.5985976706       -2.2761968336
 C       -12.0075097862        7.0724455231       -0.9598778242
 O       -11.4542270896        6.3979037479       -0.0875289011
 C       -13.4665939921        7.4293573030       -0.9387654962
 C        -9.9371147836        8.4059107848       -1.5575836086
 C       -11.7989502735        8.4551559540       -3.2909566173
 C       -11.3551425777        1.0641071161       -4.5353773253
 C        -9.2713773284        1.1206860133       -2.9021596247
 C        -2.9876950042        1.0326644303       -3.8151254970
 C        -3.7797976389       -0.3440633666       -5.6575485161
 C        -4.9319388854        4.0829790164        0.0011648200
 C        -5.3757206134        3.1012429351        2.2203317965
 C       -10.2886714684        6.1308838179        4.2429278919
 C        -9.0761120209        4.3096069747        5.5468170299
 C       -16.2042360800        2.0333042168        7.7298161874
 C       -16.5464615263        3.5198482905        5.6256058333
 H       -16.5448102718        3.5214250123        9.5084145368
 H       -16.6722140526        5.3744015062        9.5444858493
 H       -15.3387629555        4.5027054928       10.0829940839
 H       -13.7764800193        4.9919666796        5.5443247844
 H       -13.6206501431        3.1843291046        4.4961327361
 H       -11.7337439626        2.8993188803        6.2942101607
 H       -11.5920662446        4.6309034634        6.3179673384
 H        -9.4319867916        1.9848664032        3.2214239923
 H        -7.7418883038        2.7679315177        3.4038369127
 H        -9.0982012306        2.2800203818        0.7278640419
 H        -7.8012654541        1.2088931305        1.3740051511
 H        -5.2221898196        2.0684285808       -2.1984560553
 H        -6.6099325367        1.1250015910       -1.7024513219
 H        -5.4599820770       -0.8980730238       -1.4431177206
 H        -3.9824086775       -0.2485151362       -1.5676889230
 H        -6.7994151744        0.6135964487       -4.8351478988
 H        -6.5290297652        1.1066223902       -6.3451964056
 H        -7.1925751481        3.5554691256       -5.4858053619
 H        -7.4003000017        2.9434783729       -3.8381095314
 H       -11.4783095304        3.9921979146       -5.4557418698
 H        -9.9274616013        4.7050463762       -4.8527841051
 H       -12.4496176456        5.0014965046       -3.1193339953
 H       -12.2934943451        6.0782414801       -4.3270099590
 H       -13.5954159229        8.4194184573       -1.4172674725
 H       -14.0660294761        7.5696893229       -0.0052383173
 H       -14.0166781697        6.6671359324       -1.4446539751
 H       -10.2959071871        8.9950298185       -0.7611639332
 H        -9.4363793795        9.0456658665       -2.1986756584
 H        -9.1043974027        7.7579575678       -1.1961181730
 H       -12.8086835123        8.1380280594       -3.4741147020
 H       -11.3178657467        8.3986766175       -4.2097391631
 H       -11.9401605554        9.5469940701       -2.9649888786
 H       -11.0112186342        0.0073961602       -4.5343945324
 H       -11.9168076107        1.2863101710       -5.4014941819
 H       -12.0678887673        1.1848760407       -3.6596161354
 H        -8.6384818408        0.4079630713       -3.2695346171
 H        -9.9772934967        0.4840998614       -2.3401134469
 H        -8.6894607458        1.7781105516       -2.2212465067
 H        -2.2554521552        0.2793150801       -3.6048194405
 H        -3.0019404038        1.5944979468       -2.8134661966
 H        -2.5842096935        1.7448142305       -4.5822576458
 H        -3.5648336825        0.3899061623       -6.4199492356
 H        -4.4530982439       -1.1751954584       -5.8576863413
 H        -2.7628152359       -0.8577424816       -5.4600115199
 H        -3.8348738681        3.9171245480        0.0404393861
 H        -5.0244074776        5.1195914908        0.2939946165
 H        -5.1537425961        3.9631676187       -1.0357924627
 H        -5.8724045769        3.9848095058        2.7704631389
 H        -4.3123982756        3.4267060360        2.2764652779
 H        -5.4642734587        2.2018139136        2.8275219203
 H       -11.3560397948        6.1694211591        4.4063337912
 H        -9.8654435542        6.5797195685        3.3711328782
 H        -9.7764005927        6.7473463289        5.0315741209
 H        -9.4668230569        4.7503975011        6.5312037488
 H        -8.1012938194        4.8770519754        5.3209559674
 H        -8.9953693835        3.1690760681        5.6775538812
 H       -15.7201683552        1.8391487261        8.6483913683
 H       -16.0652608402        1.1311708277        7.1305790341
 H       -17.2708251082        1.8885466872        7.8970275748
 H       -17.4330680984        3.9035665880        5.9020347407
 H       -16.7090501493        2.5457821934        5.1656337264
 H       -15.9718643295        4.2196224856        4.9865905137
 Na       -9.9619994754        4.7164410976       -0.3637031432
