117

 C       -16.1575283613        4.6173425512        9.3182279236
 C       -15.9342726898        4.6770474997        7.8261516062
 O       -15.5462924993        5.7508141105        7.3622685415
 C       -15.7541795208        3.3086523892        6.9715976953
 C       -14.1858836209        3.0572276105        6.6856081053
 O       -13.6266699782        2.0918462203        7.1159242830
 C       -13.5672550340        4.0392932813        5.7308572460
 C       -12.0670448163        4.2346149842        5.7641170078
 C       -11.3728189792        4.0665997060        4.3794155915
 O       -11.8433944952        3.5074457006        3.3899312365
 C        -9.8665545803        4.6700151694        4.3575642723
 C        -9.3745084820        4.1256010486        3.0319011253
 O        -9.8793207020        4.6407452149        2.0057204680
 C        -8.5460095646        2.7998722857        2.9764893257
 C        -8.1961582381        2.3730014376        1.5659469396
 C        -7.3538706223        3.2511067321        0.6167584893
 O        -7.7689092687        4.2259316564       -0.0298567261
 C        -5.7375108285        2.9619001540        0.6731020208
 C        -5.3523666599        1.5817022634        0.1220048829
 O        -4.7017404622        0.7954761628        0.8799883330
 C        -5.6748192072        0.9966455917       -1.3294443517
 C        -4.8647834521       -0.1993781601       -1.8676338701
 C        -5.1136356370       -0.4386194698       -3.4137288882
 O        -6.0753461322       -1.0634661553       -3.8592954081
 C        -4.2574304515        0.4616713684       -4.4096408201
 C        -5.1236886555        1.6777757924       -4.7393355849
 O        -4.7426595798        2.7929700967       -4.4800647723
 C        -6.5543455111        1.5007662071       -5.3654745478
 C        -7.5383826601        2.5516089360       -5.1048391347
 C        -9.0087572550        2.1034310674       -5.3712055194
 O        -9.4724883803        2.2140417657       -6.5253363341
 C        -9.8792786959        1.8476909413       -4.0984559601
 C       -10.3675545353        3.2439747880       -3.4897093351
 O       -10.4490209080        3.4184757090       -2.2864639496
 C       -10.8861127556        4.3646392175       -4.5012298813
 C       -11.6218614923        5.5517433890       -3.7433354400
 C       -10.5675557564        6.3152383170       -2.9947212395
 O        -9.4978463083        5.8153574397       -2.7728505286
 C       -11.1427869764        7.6328459592       -2.2702886742
 C       -12.0062076407        7.0902552726       -1.1408972082
 O       -11.5528044765        6.5011311205       -0.1807870458
 C       -13.4803564254        7.4312224966       -1.1757436162
 C        -9.9578010546        8.3959524097       -1.7264528999
 C       -11.9085720322        8.5209353856       -3.3085097682
 C       -11.1683291253        1.2150477346       -4.6496728433
 C        -9.2497599596        1.1383666795       -3.0059853939
 C        -2.9247947366        1.0589360594       -3.7017516716
 C        -3.9162649645       -0.4220607327       -5.7285189762
 C        -5.0427544314        4.1261954921       -0.2018243156
 C        -5.3743646606        2.9054697809        2.2302776358
 C       -10.1715375503        6.1990948774        4.2413786936
 C        -8.9511714290        4.2347549377        5.5421488080
 C       -16.2079576293        2.0900073988        7.7407228429
 C       -16.6338312891        3.5199705383        5.6608789515
 H       -16.9424225383        3.9403637119        9.7353383318
 H       -15.8398142844        5.5848878469        9.7036934750
 H       -15.3460049207        4.0157399012        9.5288075044
 H       -13.9659165130        4.9211861818        5.9938300873
 H       -13.7761020018        3.4448845183        4.7598345407
 H       -11.5920129879        3.5884590991        6.5173486894
 H       -11.8524563611        5.2610787903        6.1811486315
 H        -9.3163632637        2.1612240671        3.4904141094
 H        -7.7522480317        3.0927349278        3.6485619627
 H        -9.1964586240        2.1503756508        1.1882488420
 H        -7.6410786289        1.4251434484        1.6581415592
 H        -5.5966838007        1.6990511126       -2.1154436828
 H        -6.7276098539        0.7662002100       -1.1986696823
 H        -4.8871260941       -1.1137910071       -1.2755759726
 H        -3.8402885097        0.1298955757       -1.6857271224
 H        -6.9273963169        0.4290483212       -5.3366573536
 H        -6.2352738617        1.5280875326       -6.4986871604
 H        -7.2431920330        3.4559289389       -5.5958869125
 H        -7.5910189547        2.6820294057       -3.9989423554
 H       -11.4599630517        3.7321462039       -5.0679779234
 H       -10.0756906814        4.7371845603       -5.1110838881
 H       -12.4228905542        5.1597435714       -2.9636571977
 H       -12.3666336094        6.0413651859       -4.4625456228
 H       -13.8209540684        8.3835953324       -1.5789729690
 H       -13.7872244389        7.6156163180       -0.0641566680
 H       -14.1463392388        6.6025680739       -1.4150262842
 H       -10.1935402661        9.1876530751       -0.9721005440
 H        -9.4726693419        8.9717349681       -2.5390000845
 H        -9.1610815422        7.7723010065       -1.4028896328
 H       -12.8914466148        8.1329158912       -3.6457040820
 H       -11.3458466780        8.7728828428       -4.1989831098
 H       -12.1597722710        9.4018144140       -2.8022564365
 H       -10.9419520528        0.2241853863       -5.0239519250
 H       -11.6099865748        1.8016437689       -5.4092625955
 H       -11.8539680714        1.1874843257       -3.9727620161
 H        -8.6830034972        0.2322886261       -3.2344012301
 H       -10.0365238778        0.7357852310       -2.3676786803
 H        -8.6139109112        1.8547908113       -2.3877951030
 H        -2.3100070077        0.2288681420       -3.1375742685
 H        -3.0796402294        1.7724178418       -2.9108833048
 H        -2.2653544943        1.5331134721       -4.3327700173
 H        -3.7730125107        0.2933545354       -6.5814948863
 H        -4.7487590619       -1.1409804254       -5.8244957435
 H        -2.9897316612       -0.9702641375       -5.7040004502
 H        -3.9559024088        3.9566893322       -0.3718455650
 H        -5.0594896289        5.0035926766        0.3699089071
 H        -5.4821628233        4.2850972815       -1.1493026398
 H        -5.5100444762        3.9556089864        2.6480463943
 H        -4.2921070598        2.6902413327        2.5066701547
 H        -5.9820403107        2.2254271494        2.8392156799
 H       -11.1729940236        6.2906076800        4.2120177611
 H        -9.6388272471        6.6062414704        3.3826019528
 H        -9.7614523042        6.8431825359        5.0468651590
 H        -9.3007519671        4.3750509502        6.4852239246
 H        -7.9705640694        4.6818368070        5.3553503755
 H        -8.9362684666        3.1187900297        5.3761012443
 H       -15.8510030136        2.0950968907        8.7060810965
 H       -15.7907080382        1.2620826590        7.2640100158
 H       -17.1859363775        1.7863186568        7.7000925674
 H       -17.5740543374        4.0528100720        5.9205402324
 H       -16.9134766787        2.5135716760        5.4619218420
 H       -16.1546991014        3.9877392865        4.8914145276
 Na      -10.0997471854        4.7441939901       -0.5080667859
