117

 C       -16.1291739305        4.7192592712        9.4461165451
 C       -15.9265717063        4.6614509899        7.9017110583
 O       -15.6946687213        5.6796912438        7.2831745339
 C       -15.7425545616        3.2528281923        7.1354355259
 C       -14.2668995989        3.2558610266        6.6860505851
 O       -13.4967189275        2.4441182878        7.1058030215
 C       -13.6848809533        4.3622417575        5.7182046432
 C       -12.1245602019        4.6275660527        5.9185637992
 C       -11.4138106939        4.1497485331        4.6739509028
 O       -11.6331000278        3.0633213903        4.1708422928
 C        -9.9028139122        4.8628960880        4.3190393554
 C        -9.4510048183        4.3621461378        2.9371537997
 O        -9.8571419155        4.8091134894        1.8968957549
 C        -8.3009736376        3.1283426395        2.8624486577
 C        -8.3273075166        2.2914483421        1.5368118206
 C        -7.3637235227        3.0453274486        0.5548463632
 O        -7.8229069608        3.9206902472       -0.1403627827
 C        -5.7535342351        2.8300272962        0.7496504550
 C        -5.4194962603        1.3674841912        0.2154419571
 O        -4.6150133708        0.7175961220        0.7741517446
 C        -6.0325633499        0.7411420319       -1.0918677105
 C        -4.8755057709       -0.2512039334       -1.5971209431
 C        -5.1252692093       -0.4747178598       -3.0946419781
 O        -5.6932385844       -1.4228210725       -3.5439634367
 C        -4.4517785776        0.4478274973       -4.3492488050
 C        -5.2986401505        1.6226671035       -4.6725217306
 O        -5.0470308789        2.7415502149       -4.2665920804
 C        -6.4475261478        1.3561496061       -5.7015089480
 C        -7.5261480692        2.5240944457       -5.3947751226
 C        -8.9190153645        1.9488729467       -5.5167392386
 O        -9.3804313433        1.8015936764       -6.5740632433
 C        -9.9197325904        1.7847071290       -4.2069514289
 C       -10.3717862379        3.1636406636       -3.4624320246
 O       -10.0646193899        3.4002093074       -2.3370440931
 C       -10.9919575413        4.3164760480       -4.4874296935
 C       -11.4258148127        5.6485006894       -4.0392758610
 C       -10.5815122121        6.4799211337       -3.1087497697
 O        -9.4550323532        6.1217119578       -2.8167614144
 C       -11.2268362266        7.8269447779       -2.3792091609
 C       -12.1807246338        7.1963968690       -1.3186278396
 O       -11.6664958204        6.5614313976       -0.3849787775
 C       -13.6058554309        7.5097597711       -1.2835185951
 C        -9.9851983599        8.5164319933       -1.9049893142
 C       -11.9242055294        8.6557714849       -3.5191704640
 C       -11.2787014118        1.0422946704       -4.5607228559
 C        -9.1239305075        0.8666949724       -3.2330872398
 C        -2.9658673009        0.7804408567       -3.9101779653
 C        -4.1373307600       -0.5095320046       -5.6245776751
 C        -5.1399648963        3.7994608786       -0.3598070395
 C        -5.1183045980        3.1726244618        2.1355652430
 C        -9.7307334203        6.4534319380        4.3843594424
 C        -9.0094519013        4.3633873619        5.4516893565
 C       -16.3944614367        2.1512472254        7.9089519803
 C       -16.6178427574        3.5172327043        5.8182391865
 H       -17.1355339564        5.0356947431        9.4839876507
 H       -15.3446814873        5.4127902764        9.7374561922
 H       -16.2235167950        3.7605191564       10.0752752244
 H       -14.1552416592        5.3780355393        6.0552477686
 H       -13.9107030405        3.8941697865        4.7577575026
 H       -11.7145083667        4.1974010416        6.8466430088
 H       -11.9556309123        5.6623547161        6.0927811692
 H        -8.5823718510        2.5317133589        3.7303092339
 H        -7.4037483620        3.6925792475        3.0232311874
 H        -9.3775699004        2.1304094524        1.2500993859
 H        -7.8941657286        1.3560386479        1.8652815835
 H        -6.1641020102        1.5707881758       -1.9390702694
 H        -7.1312737305        0.4189206137       -0.8653899883
 H        -5.0462933943       -1.2383433749       -1.0600100789
 H        -3.8987722258        0.1178776848       -1.1779842440
 H        -6.7213327481        0.3686106030       -5.4250871519
 H        -6.1792575784        1.2194413709       -6.7080826790
 H        -7.4211442388        3.1409151655       -6.3467027878
 H        -7.2368378871        3.1246627848       -4.5268707058
 H       -11.6603420626        3.6301826164       -5.1386639803
 H       -10.1117073110        4.5329083580       -5.1283752206
 H       -12.3552231709        5.5930123610       -3.5467735829
 H       -11.7665456050        6.1978811210       -4.9305181610
 H       -13.8474336767        8.5230043090       -1.6195913254
 H       -14.1357061621        7.5160806308       -0.3827501939
 H       -14.0918222229        6.7457897475       -1.9040762543
 H       -10.1393624180        9.5662608621       -1.6786705181
 H        -9.1307537651        8.5377258436       -2.5705741745
 H        -9.5778156009        7.9417687695       -0.9894377531
 H       -12.5782627497        8.1452792515       -4.1916265138
 H       -11.1015238852        9.0527652472       -4.0985922320
 H       -12.4495514459        9.6359389815       -3.1825650731
 H       -11.0835149680        0.0447710293       -5.1039429100
 H       -12.0343047136        1.6822225703       -5.0308273428
 H       -11.8367051078        0.8930372004       -3.5586651221
 H        -9.0283090256       -0.1404804461       -3.5489560325
 H        -9.5556655040        0.7788756091       -2.1947203547
 H        -8.1425262519        1.2827691139       -3.0290820401
 H        -2.4566287646        0.0476983626       -3.4252880003
 H        -2.9465173891        1.6541649152       -3.2202007769
 H        -2.1895715510        1.0935360464       -4.6818959945
 H        -3.5521029749       -0.1298305880       -6.4091180157
 H        -5.0958932573       -0.8987405986       -5.8928072023
 H        -3.5107806286       -1.3716675223       -5.2867270652
 H        -4.1171975231        3.5321258543       -0.6712398716
 H        -5.1378374819        4.8721743205        0.0149099449
 H        -5.8144293045        3.8145055875       -1.2513941751
 H        -5.4166501030        4.1553199472        2.4999805571
 H        -4.0746637485        3.2781759447        1.9631704204
 H        -5.2385842069        2.4381536401        2.9151195167
 H       -10.4908335838        7.0490818752        3.7732969824
 H        -8.7184166536        6.7175684414        4.1186595948
 H        -9.8268640349        6.7879383674        5.4337894394
 H        -9.4310580143        4.8454863128        6.3618410662
 H        -7.9701758254        4.4142202001        5.1553700917
 H        -9.0878079124        3.3162654516        5.6801622666
 H       -15.7858194801        1.9313447150        8.8284452015
 H       -16.6988880961        1.2308714548        7.3043384981
 H       -17.4689975549        2.4693619507        8.1597964901
 H       -17.6274424508        3.6154551742        6.1159102422
 H       -16.4877358005        2.5999900400        5.1731255632
 H       -16.3023694170        4.5436170718        5.3499998233
 Na       -9.9811719935        4.8558202682       -0.4576792600
