117

 C       -15.8423210118        4.8899494563        9.5607642216
 C       -16.0602498702        5.0050335588        8.0454915209
 O       -16.4967825362        6.0383251942        7.5358247266
 C       -15.5884786637        3.7718824848        7.2877891537
 C       -14.0675118255        4.1558810692        7.0771742751
 O       -13.3031400127        4.2501975158        7.9907653921
 C       -13.5465307423        4.4077258412        5.5499113963
 C       -12.3785401857        5.3543547224        5.1382776221
 C       -11.0799920241        4.5465607748        4.7827483378
 O       -10.9807479117        3.3482985689        5.0407451184
 C        -9.7212771807        5.1311042960        4.2166635132
 C        -9.3507502374        4.6560351670        2.7279654982
 O        -9.9122090043        4.9396145701        1.6904734571
 C        -8.4262261277        3.4166287668        2.8076808303
 C        -8.2816939566        2.5904045622        1.5439747394
 C        -7.3635823625        3.2943870470        0.5819150932
 O        -7.6854175545        4.1617384002       -0.1803382687
 C        -5.8243916644        2.8009556364        0.5623147853
 C        -5.8018316582        1.2047722616        0.5541824318
 O        -5.4967499356        0.6281932784        1.6154067878
 C        -5.9595951113        0.4201974003       -0.8012665637
 C        -4.5764926858       -0.0556762238       -1.5114681249
 C        -4.9601220182       -0.9378312180       -2.7342169926
 O        -5.7845507045       -1.7795655846       -2.5671133903
 C        -4.6920024609       -0.3710334710       -4.1755257557
 C        -5.8379956887        0.7424908144       -4.5266514070
 O        -6.2426511026        1.3260176044       -3.5839923343
 C        -6.4947649948        1.1906232594       -5.9620062924
 C        -7.5926959526        2.2234935955       -5.6886030968
 C        -9.0439343647        1.6372276834       -5.5233485600
 O        -9.6155848531        1.2497720027       -6.4740556209
 C        -9.8382654535        1.6962355995       -4.1111160632
 C        -9.9226222428        3.1227855641       -3.5031465268
 O       -10.0738415001        3.3238776271       -2.3352811227
 C        -9.8915371456        4.1588532610       -4.5973754148
 C       -10.7329158803        5.3538191420       -4.4509991696
 C       -10.2187272435        6.3504792015       -3.4107958576
 O        -9.1776313089        6.2006080758       -2.7696917293
 C       -11.1322115027        7.6502671182       -2.8786907907
 C       -12.1357885675        7.0505720569       -1.7469181786
 O       -11.9083043208        5.9931246713       -1.1519620091
 C       -13.3396232512        7.9545031904       -1.4083022995
 C       -10.2772060313        8.6853432208       -2.2190585843
 C       -11.9914446935        8.3103774422       -4.0309966220
 C       -11.3662246604        1.4812155487       -4.4693840985
 C        -9.2585127742        0.6035860796       -3.2238578163
 C        -3.4737948640        0.6411782805       -4.3201974411
 C        -4.6333449929       -1.5435858136       -5.2192809566
 C        -5.2510307047        3.2596600109       -0.8646548051
 C        -5.1470342815        3.4631479868        1.7369610534
 C        -9.7249774330        6.7111314826        4.1385601342
 C        -8.6008165756        4.8175422252        5.2617913761
 C       -15.5046330299        2.3277281093        7.8576609051
 C       -16.4304703653        3.6542756619        5.9609745551
 H       -15.4658793372        5.8436366595        9.7804079920
 H       -15.1546706456        4.1327903433        9.8466567560
 H       -16.8588628251        4.6600754989        9.9557194213
 H       -14.4247872299        4.6536653961        5.0332705668
 H       -13.3971545364        3.4297132738        5.1735055605
 H       -12.1598792221        6.0442888837        5.9728045153
 H       -12.7565567804        6.0488064663        4.3448894363
 H        -8.9024750439        2.8849100719        3.5857311255
 H        -7.4800107841        3.8534053362        3.1637846187
 H        -9.2998798050        2.4446864189        1.1033516994
 H        -7.9463661650        1.5921862553        1.8177416477
 H        -6.6324882284        0.7394546791       -1.5370437845
 H        -6.4086168823       -0.3928479171       -0.4040364548
 H        -3.9820976770       -0.7128988815       -0.9290692069
 H        -3.9668045519        0.7634540333       -1.7352073673
 H        -7.0407511705        0.3830316562       -6.5664740576
 H        -5.7720004559        1.8486996003       -6.5295801639
 H        -7.4404993397        3.0583157823       -6.3820057783
 H        -7.4134114355        2.6291405628       -4.7278783794
 H       -10.0083853798        3.6450290287       -5.5225947727
 H        -8.9026047972        4.4592987491       -4.5391655130
 H       -11.8573437804        5.3929244311       -4.3094931114
 H       -10.6533047197        5.8598448867       -5.5192994163
 H       -13.0154304528        8.9191046854       -0.9617017966
 H       -14.0968286613        7.6344120083       -0.7306368746
 H       -13.7601631737        8.2747486108       -2.3612154593
 H       -10.8107868686        9.4331417598       -1.7235671945
 H        -9.6480168210        9.1049867290       -2.9249944392
 H        -9.6790854052        8.2720331456       -1.3804897604
 H       -12.9194401453        7.8324906828       -4.1494790773
 H       -11.5353023820        8.4399116111       -5.0040294208
 H       -12.1905492463        9.3703122487       -3.6168314699
 H       -11.5745888725        0.4708317260       -4.7721570173
 H       -11.6146742451        2.0811719145       -5.2871721823
 H       -11.8955063926        1.5966939973       -3.6453082493
 H        -9.6148782140       -0.3642451923       -3.2653229589
 H        -9.4329355458        0.9480147718       -2.1685647979
 H        -8.2025976912        0.4553309243       -3.3075254307
 H        -2.5069717708        0.2674504333       -4.0787929314
 H        -3.5095230217        1.5510112862       -3.6947219185
 H        -3.2514700359        1.0004427981       -5.3560301636
 H        -4.3277844835       -1.1863777105       -6.1698904636
 H        -5.6418958763       -1.8939659964       -5.4431236557
 H        -4.1074944370       -2.3890746469       -4.7339232759
 H        -4.4249161325        2.5916623608       -1.0168512342
 H        -4.9509324424        4.3377527573       -0.8775749810
 H        -5.9703879615        3.1120591519       -1.6515229783
 H        -5.8582632275        4.2650932643        2.1347198543
 H        -4.1972499657        3.8688917132        1.3696487697
 H        -4.9519927533        2.7658511204        2.5755573950
 H        -8.8458077749        7.1942519373        4.5804856924
 H       -10.4745780757        7.1438403237        4.7541158432
 H        -9.9202584587        6.9230086580        3.0684034636
 H        -8.6277758752        5.5312416473        6.0633690318
 H        -7.5952511709        4.9503151916        4.8618893828
 H        -8.6501462594        3.7632004731        5.6097346753
 H       -14.8895034055        2.0194395185        8.6330838913
 H       -15.1409575231        1.8162862247        6.9651239131
 H       -16.5181075593        2.1632888771        8.1679565377
 H       -17.3294698924        3.6723342683        6.3941959292
 H       -16.2437687711        2.7121595308        5.4775720035
 H       -16.3698743078        4.4609986266        5.1966366470
 Na      -10.1378520017        4.7250346558       -0.6095821749
