117

 C       -15.8315492163        5.0161969570        9.6864960748
 C       -16.0090425443        5.0429142250        8.1057766218
 O       -16.6243319737        5.8966599536        7.4925373609
 C       -15.4609808933        3.7616684140        7.2157739170
 C       -13.9066168450        4.3162456151        6.8794374374
 O       -13.2936713865        4.5606905735        7.8721984584
 C       -13.4470374294        4.3515439800        5.3955018791
 C       -12.2654285786        5.3052186901        5.1846841123
 C       -11.0066819657        4.5744831508        4.7776705942
 O       -10.9862943044        3.3761506287        4.8695265743
 C        -9.7142544757        5.3098658023        4.0864338904
 C        -9.4795188800        4.5436343629        2.7232092682
 O        -9.9504994859        4.9695971861        1.6719635553
 C        -8.6173576911        3.2720272125        2.8299241752
 C        -8.2291562441        2.5324320143        1.5827256354
 C        -7.3327384027        3.2720935600        0.5110841954
 O        -7.7548962341        4.3180911067       -0.0787005659
 C        -5.8407114875        2.7619457491        0.4077850507
 C        -5.7497284940        1.1864175752        0.5076450797
 O        -5.6989980358        0.7038158039        1.6671484245
 C        -6.0342786887        0.2909844572       -0.6272595073
 C        -4.7141423299        0.1055072233       -1.4000410510
 C        -5.1749327731       -0.8145258665       -2.6577026021
 O        -5.7025259620       -1.8836004357       -2.4501649533
 C        -4.8202165378       -0.3231995655       -4.2184313022
 C        -5.9423837013        0.5868549866       -4.4863150156
 O        -6.3828433915        1.2267329883       -3.5374063544
 C        -6.3889033319        1.0544338402       -5.8455403417
 C        -7.5529336231        2.1401840011       -5.6592118031
 C        -9.0995545402        1.6440562992       -5.5553050983
 O        -9.6388084584        1.1055991196       -6.5631320255
 C        -9.8774160203        1.6935759440       -4.1347137442
 C        -9.8528334619        3.0631841809       -3.4918501264
 O       -10.0321551742        3.2411513100       -2.2928042020
 C        -9.7012024577        4.3477879785       -4.5978216228
 C       -10.5707737886        5.5760598805       -4.5537691747
 C       -10.2682549280        6.4153308078       -3.3198100914
 O        -9.2626338365        6.2783591466       -2.7232883466
 C       -11.1867115763        7.6003056804       -2.9129657987
 C       -12.1104540050        7.0594829222       -1.7851471966
 O       -11.9577004285        6.0401977452       -1.1383214080
 C       -13.2395558494        7.9285226009       -1.3597239001
 C       -10.2392670634        8.6116071544       -2.2617381940
 C       -11.9652948041        8.2285563243       -4.0681593948
 C       -11.3846694778        1.3251993906       -4.3765601774
 C        -9.4117452182        0.5338421895       -3.2390270831
 C        -3.5035236638        0.4469815368       -4.4102807198
 C        -4.5674052036       -1.5687622235       -5.1163087955
 C        -5.1399038215        3.3514854904       -0.8732989833
 C        -5.1103436712        3.3547363598        1.6660096729
 C        -9.7957657434        6.9376579180        4.1810158325
 C        -8.5359048993        4.9529001758        5.1622885723
 C       -15.3312668166        2.4285023504        7.9047315750
 C       -16.3886634310        3.7894177800        5.9900853576
 H       -15.5663928211        6.0021993034       10.1720245115
 H       -14.9939311269        4.3138798971        9.8964012988
 H       -16.6920770660        4.5096401359        9.9451489154
 H       -14.2695216284        4.3652404148        4.7593447103
 H       -13.1500571024        3.1926479704        5.2012485859
 H       -12.1789989437        6.0570951273        6.0251309592
 H       -12.5797347369        5.9380140831        4.3467128411
 H        -9.2171315083        2.6992505309        3.6071015695
 H        -7.8089439073        3.6815322201        3.2798267400
 H        -9.1886088427        2.3257498672        1.0558973668
 H        -7.8731038804        1.5576818479        1.8888894644
 H        -6.8105458645        0.6911157891       -1.3331719264
 H        -6.4508624979       -0.6475775482       -0.1429116484
 H        -3.9100839881       -0.4386100885       -0.8849093490
 H        -4.3051901854        1.0995565922       -1.6692895377
 H        -6.9311901581        0.3459445800       -6.4266126786
 H        -5.5594391128        1.6541866052       -6.3893016415
 H        -7.4794926149        2.8773623451       -6.5103943130
 H        -7.4220839752        2.6998910453       -4.6988866635
 H       -10.1869282104        3.7530283461       -5.3748188117
 H        -8.6905520835        4.3854048739       -4.8312327453
 H       -11.6552123767        5.2627992064       -4.5251243807
 H       -10.6135667778        6.2294389124       -5.5559318205
 H       -12.9719761856        8.9733840232       -1.0389668192
 H       -13.7689455659        7.4786126731       -0.4509644976
 H       -13.9145970194        8.1016304192       -2.1632385990
 H       -10.6917752345        9.5227254049       -1.9143744654
 H        -9.4586017218        8.7690794457       -2.9726333948
 H        -9.8038096744        8.2619278388       -1.3405082710
 H       -12.7326953824        7.6521457694       -4.5870486930
 H       -11.2586238893        8.5717145980       -4.7728910042
 H       -12.3965811902        9.1595328648       -3.6452249077
 H       -11.4475029460        0.4018388896       -4.8443211115
 H       -11.9088644559        2.0145944874       -5.0693337213
 H       -11.8232957276        1.1606774177       -3.4106164091
 H       -10.0012784118       -0.3634612881       -3.2825840542
 H        -9.5085665359        0.7750488597       -2.1542529078
 H        -8.4019726947        0.0832960767       -3.4077486986
 H        -2.5061005069       -0.0710514985       -4.2178460829
 H        -3.3959440900        1.2907129219       -3.7908569649
 H        -3.4070522090        0.8041018783       -5.3268267840
 H        -4.3262291298       -1.2617763852       -6.0927569927
 H        -5.4974393709       -2.0834621881       -5.3086696763
 H        -3.9390440403       -2.2745324811       -4.5592703681
 H        -4.1390059896        2.8669965146       -0.9592175669
 H        -5.0259797421        4.4052440380       -0.7253395003
 H        -5.7543329985        3.1127005139       -1.7093642613
 H        -5.7658441890        4.0584959546        2.2943003902
 H        -4.2418229182        3.8454084628        1.1833596369
 H        -4.7072685812        2.5843313576        2.3170834098
 H        -8.8850521857        7.3877060484        4.1435307090
 H       -10.1972879155        7.1760851826        5.1710884881
 H       -10.4501098661        7.2686026570        3.3633815243
 H        -8.6285665762        5.3960046317        6.0616915943
 H        -7.5365928692        5.2003476005        4.9598483738
 H        -8.6561924358        3.8950762149        5.2707668993
 H       -14.5343986032        2.4003962843        8.5939330080
 H       -15.1614617602        1.6457529307        7.2152265771
 H       -16.1528598110        2.4377181208        8.5203025616
 H       -17.3066671067        3.3293438784        6.3430786161
 H       -15.9482135855        3.2256817353        5.1876634600
 H       -16.5908629316        4.7433162632        5.6396966158
 Na      -10.0895681930        4.6046827256       -0.5838730842
