117

 C       -15.6180216491        5.0427159701        9.6538780343
 C       -16.0535035654        5.2376765594        8.1067998906
 O       -16.9711934232        5.8653938017        7.6387888662
 C       -15.2139920066        4.1267729347        7.2352590166
 C       -13.9523150430        4.6609289868        6.7570196745
 O       -13.1781072957        5.2520731018        7.5015471454
 C       -13.3457553668        4.3500109236        5.2310882081
 C       -12.0632192582        5.2119870233        5.1157262630
 C       -10.7910856336        4.4857457555        4.6838801771
 O       -10.8591448837        3.2615482186        4.5194562975
 C        -9.5417110695        5.3329303241        4.0776497704
 C        -9.4724277782        4.6869037569        2.6834384844
 O       -10.1417718418        5.1529617684        1.7808239305
 C        -8.8183945106        3.2348077905        2.7296397428
 C        -8.5146722752        2.6457084942        1.3465248875
 C        -7.3900325142        3.3219144662        0.6305701184
 O        -7.6074276981        4.2501213551       -0.0515252196
 C        -5.8056095091        2.8281546966        0.5382247066
 C        -5.9171912859        1.3389606383        0.6580975502
 O        -5.9984801047        0.7825545171        1.7337819766
 C        -6.0633680379        0.2753354776       -0.5256239886
 C        -4.9280479717        0.1437334849       -1.4842270146
 C        -5.0825375095       -0.9801465428       -2.5448252120
 O        -5.4624845036       -2.0917674806       -2.3990041262
 C        -4.9164893250       -0.3784056487       -4.0231974746
 C        -6.0374764973        0.5429184482       -4.2874234818
 O        -6.5979591586        1.0922532298       -3.3734020629
 C        -6.5995844420        0.7229227526       -5.6322360262
 C        -7.6448507320        1.9112773275       -5.7625300604
 C        -9.1625921587        1.3547616537       -5.8156040155
 O        -9.7334005206        0.7520102094       -6.6256971077
 C        -9.9728774597        1.5126625248       -4.3561566892
 C        -9.7338615453        3.0884466254       -3.7239702189
 O        -9.9134861117        3.1509329366       -2.5210126183
 C        -9.3964222772        4.2534086372       -4.6581176085
 C       -10.3659194488        5.4167507353       -4.3605908291
 C       -10.1955721801        6.3248266755       -3.1775035052
 O        -9.2795690027        6.0275842042       -2.3778134917
 C       -11.0848259728        7.6028227777       -2.8833270814
 C       -12.0765274223        7.1732440680       -1.6535192541
 O       -11.9489964716        6.0839266189       -1.0896055394
 C       -13.2573226178        7.9345287025       -1.2882411765
 C       -10.3468017804        8.8249251475       -2.2119952630
 C       -11.9076042055        8.0870806158       -4.0472580362
 C       -11.4711885561        1.3025712325       -4.6684558283
 C        -9.5212758347        0.5785276822       -3.1333317732
 C        -3.4874273641        0.2687439525       -4.1725218580
 C        -5.0571621172       -1.6933390619       -4.9613198520
 C        -5.3575708085        3.3873340366       -0.7787142079
 C        -4.9394889964        3.4502553982        1.7064892412
 C       -10.0522688077        6.8446570392        3.7545037003
 C        -8.4067071859        5.3290215280        5.1829938267
 C       -14.9770394551        2.7137442308        8.0716927108
 C       -16.1067628227        3.6377804355        5.9916774227
 H       -15.9899085499        5.8479135822       10.2197255200
 H       -14.5476705754        5.1251589935        9.7472623324
 H       -15.9478194011        3.9624592434        9.9629870906
 H       -14.1402152961        4.5210783154        4.4039598705
 H       -13.1319472796        3.3671357478        4.9768665338
 H       -11.8063331289        5.5383875728        6.1201016900
 H       -12.4010330705        6.1577379945        4.6713569364
 H        -9.6875376504        2.8294626903        3.1818005803
 H        -7.9304146984        3.2485702784        3.5173565455
 H        -9.3804430936        2.6188332043        0.7030831113
 H        -8.2432840105        1.6085317202        1.5705074085
 H        -7.0413733774        0.5835484733       -1.0164088887
 H        -6.2332342054       -0.7068919736       -0.1084958785
 H        -4.0223805412        0.0059357375       -0.8090138249
 H        -4.6985294570        1.0469910643       -2.0666333154
 H        -7.1365241430       -0.2050287048       -5.9023071498
 H        -5.8752290317        1.0889184275       -6.2166532462
 H        -7.5718978606        2.4828873323       -6.7197778203
 H        -7.4350015747        2.5811396008       -4.9291479144
 H        -9.3567435803        3.8336166099       -5.6892275089
 H        -8.3082095358        4.3497985696       -4.2966044280
 H       -11.3414083107        5.0075632374       -4.3806448501
 H       -10.3275405607        6.0861107509       -5.1385508556
 H       -13.2990397342        9.0067330622       -1.5418637156
 H       -13.3423389479        7.7212410876       -0.2580689207
 H       -14.1515373469        7.5236936221       -1.8660383832
 H       -11.1320929232        9.5966938650       -2.1039686977
 H        -9.5288138376        9.1778650269       -2.8757813666
 H        -9.9541637001        8.8257335210       -1.1577839317
 H       -12.1409237500        7.2500426276       -4.6723095322
 H       -11.2014805704        8.6868031012       -4.6597439735
 H       -12.8883395434        8.5693077060       -3.8388486725
 H       -11.6531152923        0.6179894597       -5.6437913398
 H       -11.9488054366        2.2884240426       -4.9549837862
 H       -11.9739512706        0.7756467880       -3.8915639104
 H        -9.5966108015       -0.5006707380       -3.2076687483
 H       -10.0984622632        0.7559710312       -2.2225073076
 H        -8.4749488959        0.6378215961       -2.9717951926
 H        -2.6353159566       -0.2157641999       -3.8600212053
 H        -3.3356088584        1.2047914849       -3.5700066716
 H        -3.2969343613        0.7276020459       -5.2327578033
 H        -5.3895329050       -1.3174970202       -5.9265959932
 H        -5.8722393325       -2.3805271095       -4.7422439093
 H        -4.1620299993       -2.2910827989       -4.9647403190
 H        -4.3040241880        3.6842086025       -0.8172823263
 H        -5.9286453768        4.3934981094       -0.8237280170
 H        -5.7116644210        2.6015785721       -1.5035725488
 H        -5.6559555524        3.9789881492        2.2671261877
 H        -4.1457018131        4.0595162760        1.3675369226
 H        -4.5005256658        2.6089308100        2.2504859164
 H        -9.8218596764        7.0779649724        2.6275160909
 H        -9.6426234969        7.6308632471        4.3786139574
 H       -11.1504284773        6.8818518451        3.7183234232
 H        -8.7195084168        5.9821231478        6.0769002989
 H        -7.5517207292        5.9974931636        4.9787593068
 H        -8.1318845812        4.3631044424        5.7313510471
 H       -14.1518053425        2.7792294724        8.7991609251
 H       -14.6075113381        2.0901595000        7.2112843101
 H       -15.9082956096        2.4391677428        8.6540114464
 H       -16.7003222689        2.7954744268        6.2999496430
 H       -15.4843269526        3.3493346186        5.0775158616
 H       -16.8472798848        4.5352621465        5.7134198355
 Na       -9.8321658409        4.6974524076       -0.5978117992
