117

 C       -15.5455020698        5.7260606527        9.6384366398
 C       -16.0019595320        5.1301829510        8.3617778766
 O       -17.1481034062        5.1926092646        7.9533795325
 C       -15.0935097636        4.3727433711        7.4926023815
 C       -14.0380403183        5.4182950416        6.7218770626
 O       -13.8736543919        6.5476838054        7.1315129960
 C       -13.1626391662        4.8611192570        5.5530660231
 C       -12.0138117476        5.6613829725        5.0215076780
 C       -10.9498974500        4.7832234455        4.4952305360
 O       -10.7496853664        3.6381713711        4.7716202499
 C        -9.7245047661        5.5391517226        3.6904767423
 C        -9.5681285245        4.6265691711        2.3384358398
 O        -9.8567911920        5.2116686188        1.2886648681
 C        -9.0068998064        3.2487536816        2.3363113466
 C        -8.4757327998        2.6946542937        0.9786804128
 C        -7.3292678778        3.3459760967        0.2359440427
 O        -7.5115665222        4.1273322083       -0.7292653718
 C        -5.8528212545        2.8952007946        0.5179921897
 C        -5.9419209017        1.2741757291        0.7141936575
 O        -5.8594010981        0.8371420521        1.8682633544
 C        -6.2455244183        0.4390413115       -0.5207643930
 C        -4.8735174439       -0.1405399827       -1.0451982529
 C        -5.1282548017       -1.2977332779       -2.0357682278
 O        -5.2535516615       -2.4466705955       -1.6989962192
 C        -5.1609694359       -0.8816812827       -3.6498282259
 C        -6.1231368877        0.2440234516       -3.9353914207
 O        -6.2325525955        1.2542180315       -3.2482129797
 C        -6.8164112830        0.1288965298       -5.3378280335
 C        -7.7550304163        1.3130837724       -5.5888723242
 C        -9.2791166293        1.0256176576       -5.4879751100
 O        -9.7721727325        0.4387862585       -6.4878335138
 C       -10.2959354874        1.5133468582       -4.4258319835
 C        -9.8120092430        2.8464129154       -3.7233685424
 O        -9.9361599623        2.8130229653       -2.5155557125
 C        -9.2640364150        4.1160914489       -4.3393385279
 C       -10.3571894370        5.2512297105       -4.4184261839
 C       -10.0341712810        6.3406341788       -3.2572545382
 O        -8.9628190813        6.3910602954       -2.7609078640
 C       -11.0645912594        7.4344412591       -2.8351219218
 C       -11.9247612731        6.9191247944       -1.5566412681
 O       -11.5438670182        6.0356025584       -0.8314408472
 C       -13.2124555638        7.6642460178       -1.2502000854
 C       -10.3602667394        8.7167234331       -2.3263598700
 C       -12.0004465458        7.9048503279       -3.9451882767
 C       -11.5339090991        2.1934718446       -5.1662750675
 C       -10.7592451433        0.3192590001       -3.5168124332
 C        -3.7874999875       -0.3615076864       -3.9407825078
 C        -5.4150875895       -2.1041037372       -4.6636263450
 C        -4.8690310902        3.3896049799       -0.7235902684
 C        -5.1901555226        3.4987617266        1.7861167830
 C        -9.7785893354        7.0388468836        3.4193604954
 C        -8.4375617468        5.5776233315        4.6247237893
 C       -14.4161523405        3.3933785502        8.4547453976
 C       -15.6965113252        3.5672306756        6.3168877461
 H       -16.3406363518        6.2910312017       10.1975132866
 H       -14.7583377978        6.4842925132        9.3833870813
 H       -15.0489092970        4.9851818884       10.1373160599
 H       -13.6785860873        4.3817762817        4.8691094345
 H       -12.7655667866        3.9726084028        5.9880457663
 H       -11.6263488117        6.1900079643        5.8938515464
 H       -12.4376815230        6.3974763470        4.3201978067
 H        -9.8112397467        2.5947901898        2.8147797307
 H        -8.2914139394        3.3231648303        3.0606988842
 H        -9.3075661919        2.6551783517        0.2346821889
 H        -8.1964601329        1.7049545519        1.2671461290
 H        -6.5358402726        1.0131855216       -1.3263888735
 H        -6.8877820027       -0.3655758413       -0.1940070151
 H        -4.2763044653       -0.6602766652       -0.2587472261
 H        -4.2919440986        0.7422628210       -1.4446046341
 H        -7.4673119937       -0.7090644736       -5.5196186837
 H        -5.9899681433        0.1787078384       -6.1281589230
 H        -7.5250099792        1.5380572829       -6.6546616954
 H        -7.7379700987        2.1943134577       -4.9828955294
 H        -8.6550238409        3.9346153353       -5.2928400296
 H        -8.5310554419        4.2816424865       -3.5446390011
 H       -11.2827032413        4.7995309246       -4.2931809166
 H       -10.2655346284        5.7115304752       -5.4111181646
 H       -13.4323419555        8.5355693148       -1.8516080929
 H       -13.3281459596        7.6903268057       -0.1055929760
 H       -13.9695203482        6.9871881157       -1.5742416543
 H       -11.0831007896        9.5444877982       -2.0928944856
 H        -9.6118971372        9.1526864936       -3.0308377075
 H        -9.7526722710        8.4878156918       -1.4219771083
 H       -12.6943662309        7.0987324303       -4.2630034810
 H       -11.4460435172        8.3334504940       -4.7638617095
 H       -12.5774480525        8.7313737613       -3.5101978906
 H       -12.0747752782        1.5910126510       -5.8053418916
 H       -11.1186345136        3.0342569135       -5.7622619078
 H       -12.2679703877        2.8358548463       -4.5267635747
 H       -11.4886933330       -0.4080198743       -3.8515085589
 H       -11.1362824663        0.6318445389       -2.5503090592
 H        -9.9031806032       -0.2661527736       -3.1682130767
 H        -2.9560763528       -1.1887937381       -3.9377643145
 H        -3.3134248885        0.3660128072       -3.2067560977
 H        -3.6161626806        0.1751546245       -4.8366470351
 H        -5.0663626141       -1.8285373345       -5.6346851490
 H        -6.4625175115       -2.3290316202       -4.5860126472
 H        -4.7841125373       -3.0220816747       -4.4497562861
 H        -3.9250909774        3.8605857007       -0.3004274366
 H        -5.4265384118        4.2415939681       -1.1559449560
 H        -4.8077620996        2.4618615257       -1.2863053596
 H        -4.5222823500        4.2310093269        1.3324619892
 H        -4.5070243929        2.7107829906        1.9749277069
 H        -5.7443064004        3.7603905925        2.6385070417
 H        -8.8386761745        7.2833110607        3.0445348891
 H       -10.1424980206        7.4111203543        4.4354599992
 H       -10.5725789443        7.5087800820        2.7528586310
 H        -8.5703233523        6.2904144005        5.4846993151
 H        -7.3632685441        5.6265936554        4.1397842010
 H        -8.4014378568        4.6496740078        5.2353042141
 H       -13.7287126440        3.8662032989        9.1656903110
 H       -13.9482166011        2.5535316406        7.9113895999
 H       -15.2489886755        2.8152641981        8.8101746553
 H       -16.3416552553        2.7348025400        6.8298549590
 H       -14.8394130541        2.9345370608        5.8332541575
 H       -16.2951726368        4.1445934316        5.6166590530
 Na       -9.6868411038        4.6421578819       -1.1693887912
