117

 C       -15.5953334249        5.8981264694        9.6064802275
 C       -16.2063980979        5.2440493953        8.3390682688
 O       -17.3647705987        5.0756170977        8.1116678195
 C       -14.9968072560        4.4781268892        7.4821253089
 C       -13.9690601042        5.4765779719        6.7669058322
 O       -14.0456952808        6.6586325129        7.1138913811
 C       -13.1540404049        4.8185227206        5.6252971238
 C       -12.0430976984        5.6701423700        4.9984502295
 C       -10.7471481347        4.9248586167        4.4421532252
 O       -10.6678636765        3.7412970832        4.6477868252
 C        -9.5868465996        5.6177566967        3.6261597343
 C        -9.4892455482        4.8012123942        2.2314381318
 O        -9.9310307262        5.2740157397        1.2060299722
 C        -8.9910736469        3.3196795935        2.3037643333
 C        -8.5459362142        2.7418036535        0.9993100248
 C        -7.3477172838        3.3663120238        0.2048834678
 O        -7.5130139568        3.8861751733       -0.8820482286
 C        -5.7393290207        2.9275678395        0.5240707871
 C        -5.8578847342        1.3874910839        0.7742072084
 O        -5.6870134603        0.8953641094        1.8184740770
 C        -6.2644094324        0.5210306509       -0.4640171540
 C        -4.9309724692       -0.2035704391       -1.0957858444
 C        -5.2370024215       -1.3158465574       -2.0189832347
 O        -5.3303464941       -2.4790276713       -1.6210490067
 C        -5.1037942728       -0.9687056036       -3.5591359082
 C        -6.0927502305        0.1638860480       -3.9723126280
 O        -6.2154655211        1.1487984877       -3.1856013951
 C        -6.9951332263        0.0754692814       -5.2633833993
 C        -7.8460203631        1.3406700653       -5.3535993388
 C        -9.4028159831        0.9519959670       -5.5753204747
 O        -9.7747586128        0.3956465924       -6.5470329732
 C       -10.3287264306        1.6221825227       -4.4614557072
 C        -9.7571249074        2.7730181280       -3.5851722354
 O        -9.9468821495        2.7516833695       -2.3778535981
 C        -9.2973572184        4.1032062406       -4.3521881901
 C       -10.4485302996        5.2404454379       -4.2480964893
 C       -10.0590168091        6.4638737565       -3.3565195253
 O        -9.0104749096        6.4923126241       -2.7300023130
 C       -11.1855595585        7.4476774614       -2.9444010515
 C       -11.8966423004        6.8492591575       -1.6675881276
 O       -11.2960666453        5.9826301631       -1.0205547551
 C       -13.1325571540        7.5441542820       -1.1229426438
 C       -10.3565867664        8.6336994591       -2.2617757436
 C       -12.0094793359        7.8444561596       -4.1797448380
 C       -11.5629900466        2.1202288760       -5.3683525236
 C       -10.9759554203        0.5925015223       -3.5658699276
 C        -3.6113121082       -0.6505655029       -3.8405600306
 C        -5.3281736610       -2.2877962708       -4.5221195145
 C        -4.9269576608        3.3039759721       -0.7146026891
 C        -5.2195881272        3.4665883826        1.9557181319
 C        -9.8503280209        7.1163957125        3.3302712501
 C        -8.3498533024        5.3850073472        4.5447459162
 C       -14.0803834050        3.6344437717        8.5049104230
 C       -15.6812064742        3.5742372677        6.4521922624
 H       -16.3182856787        6.4172081571       10.2075434572
 H       -14.7513604438        6.5733824410        9.4181327277
 H       -15.1869352796        5.0363401801       10.1316622082
 H       -13.9672464967        4.5587294278        4.8085827503
 H       -12.9179225882        3.8667239968        5.8649132470
 H       -11.8151013617        6.4113331945        5.7525977414
 H       -12.6231431317        6.1322873678        4.2591857571
 H        -9.8868181903        2.7960910257        2.6493415519
 H        -8.3185388837        3.2396065508        3.1424786237
 H        -9.3655214419        2.8925028760        0.3086456945
 H        -8.3670862332        1.6477764484        1.2137408472
 H        -6.7375584221        0.9622084107       -1.2608342750
 H        -6.7934063426       -0.2261633090        0.0484434237
 H        -4.3625707656       -0.6601291894       -0.3527890958
 H        -4.3628325528        0.5289444622       -1.6066261161
 H        -7.7814500899       -0.7302045240       -5.3132693378
 H        -6.3260068046       -0.0172912834       -6.2447380545
 H        -7.4986399297        1.8335659322       -6.1883588684
 H        -7.9272296191        1.9855682289       -4.5132204223
 H        -9.2543190996        3.8652838563       -5.3454297077
 H        -8.3106283677        4.2235785215       -4.0028429823
 H       -11.4006896202        4.6343671091       -3.9515433604
 H       -10.5135332081        5.6614825908       -5.3058062067
 H       -13.0841218316        8.6162441889       -1.2490447531
 H       -13.2521303421        7.1407470896       -0.1281152984
 H       -14.0191047930        7.2373824320       -1.6836656525
 H       -10.8298654901        9.6223115136       -2.0409174607
 H        -9.6060397521        8.8907942165       -3.0671604029
 H        -9.7282639055        8.2851865293       -1.4981761375
 H       -12.5313543924        6.9214671210       -4.6077959065
 H       -11.3377538445        8.3421845223       -4.9153690286
 H       -12.6732432616        8.5896714060       -3.9007833794
 H       -11.6593243897        1.2953132067       -6.0840143865
 H       -11.3556807094        2.9405137325       -5.8842007744
 H       -12.5094427981        2.4340514762       -4.9268310442
 H       -11.7644636135       -0.0537897227       -4.0505656278
 H       -11.4667643704        1.0141612319       -2.7725407813
 H       -10.3233688676       -0.0658137706       -3.0617457172
 H        -2.9564301844       -1.4393473240       -3.7291391195
 H        -3.0690688723        0.2217967126       -3.4097402751
 H        -3.4907740609       -0.3435848732       -4.9732946365
 H        -5.4742159053       -1.9269801175       -5.5760905811
 H        -6.2093469530       -2.7954350519       -4.1542889337
 H        -4.4745331377       -2.8889272024       -4.7446253780
 H        -4.0383953621        3.7874399695       -0.3164082948
 H        -5.5217487066        4.0728102558       -1.2410644725
 H        -4.8028265764        2.3190045397       -1.2181007475
 H        -4.4611280557        4.1252358353        1.7530955374
 H        -4.8185627188        2.6125705307        2.4782140339
 H        -6.0689127461        3.9039829294        2.4785445167
 H        -9.2769957629        7.3993884927        2.3705267006
 H        -9.8370279136        7.7186650604        4.2434634711
 H       -10.9021675912        7.2307490226        3.1377995186
 H        -8.3574720613        5.8947444377        5.5999768188
 H        -7.3954284221        5.5438931469        3.9969158717
 H        -8.2502663475        4.3329178473        4.8089781206
 H       -13.3861350700        4.3303062505        9.0720725531
 H       -13.5954406500        2.7653808342        8.0803357901
 H       -14.8519384129        3.0655943273        9.0459253318
 H       -16.0523648837        2.6830726235        7.0732057608
 H       -14.9811342574        3.0966630317        5.7397492952
 H       -16.5533265813        4.0582374749        5.9124062187
 Na       -9.5586765150        4.6911593295       -1.1184611832
