117

 C       -15.7687138158        6.1541689704        9.5839731468
 C       -16.1482178285        5.1265779930        8.4607642311
 O       -17.3496454368        5.0233369559        8.2090693212
 C       -15.0087471567        4.4490645450        7.6035024894
 C       -14.1045208667        5.5560838189        6.7777095649
 O       -13.9706675463        6.7318444558        6.9243655557
 C       -13.0931772733        4.9486815601        5.6439641866
 C       -11.9578745228        5.8885389249        4.9237440166
 C       -10.7476274128        4.9584394988        4.4475729681
 O       -10.6573548692        3.7348303434        4.5836622290
 C        -9.5702861445        5.6359734161        3.5730427366
 C        -9.4633964606        4.9833336358        2.2814938362
 O        -9.8846402635        5.3883096532        1.2217482961
 C        -8.8715163302        3.4234573713        2.2772098765
 C        -8.5385937793        2.7821690377        0.9420004024
 C        -7.2839806933        3.2415561063        0.2133416121
 O        -7.4467140003        3.7127860302       -0.8879716021
 C        -5.8183657499        2.9646413076        0.5578015911
 C        -5.8365345158        1.3057689102        0.7526550814
 O        -5.4859342164        0.8535114003        1.8544527654
 C        -6.2613623343        0.4222583661       -0.3890360767
 C        -4.9711632261       -0.1717124636       -1.0057153444
 C        -5.1783821748       -1.4366443603       -2.0779412542
 O        -5.5309556873       -2.4885117220       -1.6587890419
 C        -5.0338174437       -1.1413551441       -3.6424089771
 C        -6.0530672790        0.0555679115       -3.9807319629
 O        -6.1128178377        1.0194431981       -3.2581981972
 C        -7.0354846764       -0.0051354848       -5.0973700374
 C        -7.8944846327        1.2837586116       -5.1810016422
 C        -9.4374385423        1.1083055880       -5.5924284412
 O        -9.7455731410        0.3448417417       -6.4362660519
 C       -10.5480597137        1.7453496357       -4.6041687926
 C       -10.0253533961        2.8107026108       -3.6208858570
 O        -9.8697044552        2.7394612936       -2.3741198876
 C        -9.4677354158        4.1419236799       -4.3008391897
 C       -10.5111279023        5.1881891030       -4.1383728481
 C       -10.0326240133        6.3077036327       -3.2980023007
 O        -8.8967163291        6.4282798860       -2.7905972840
 C       -11.1053143957        7.4724538171       -3.0618896867
 C       -11.8486049734        6.8928072612       -1.7578543278
 O       -11.3410413635        5.9185369032       -1.2173189733
 C       -13.0976993262        7.4264530895       -1.1141336862
 C       -10.4381625168        8.7011433262       -2.3710633417
 C       -12.0561650303        7.8285751106       -4.2609681900
 C       -11.6634552856        2.1788691599       -5.5530498783
 C       -11.1469226884        0.6795949590       -3.5980649612
 C        -3.5055897600       -0.7879757995       -3.7991362566
 C        -5.3482533498       -2.5395560076       -4.2717019228
 C        -4.9029567209        3.2931284747       -0.5907561371
 C        -5.4146225542        3.6524534043        1.9822203236
 C        -9.8983536964        7.1729188496        3.2284697319
 C        -8.2980632782        5.3023069721        4.3799510401
 C       -13.8766813589        3.8520612402        8.4638144038
 C       -15.8002725462        3.4378472954        6.6200916636
 H       -16.6855197058        6.6797522279        9.6581108233
 H       -15.0099130427        6.8448736528        9.3159023995
 H       -15.4953213109        5.7276892901       10.6310134277
 H       -13.6990938890        4.3899398613        4.8098156687
 H       -12.5008439100        3.9861313604        6.0687600823
 H       -11.5988475396        6.6247077905        5.6404088121
 H       -12.5397177962        6.3045458616        4.1355359212
 H        -9.6252955694        2.8835520496        2.7822740027
 H        -7.9278948334        3.3028474334        3.0095189744
 H        -9.2927823555        2.9419855589        0.1950440856
 H        -8.4470017018        1.6899774216        1.2355206257
 H        -6.7854136843        1.0639776882       -1.2244476457
 H        -6.8450496028       -0.3464234075        0.0587588800
 H        -4.4182940277       -0.6225768053       -0.2242694415
 H        -4.4761962696        0.6060733257       -1.4561070273
 H        -7.8182259457       -0.8688807997       -4.9901154904
 H        -6.5060138360       -0.1861362194       -6.0334702691
 H        -7.3483940313        1.9311436920       -5.8309559596
 H        -8.1375069355        1.7632784211       -4.2404846913
 H        -9.3705720602        3.9280611915       -5.3223571624
 H        -8.4842789658        4.2292396493       -3.8729085942
 H       -11.4149971677        4.5625861869       -3.6862742853
 H       -10.7371811740        5.7122668599       -5.1171437643
 H       -12.7999236129        8.4033271893       -0.7040516286
 H       -13.3139565103        6.7236852521       -0.3715597364
 H       -14.0238444697        7.6086104462       -1.7206093099
 H       -11.1689911995        9.4570414126       -2.2500731383
 H        -9.7601138690        9.2271864672       -3.0101422195
 H        -9.8535249719        8.4391414611       -1.4855027622
 H       -12.3909036950        6.8901385561       -4.6366480029
 H       -11.4939559669        8.3863238339       -5.0254415414
 H       -12.8719160171        8.5315359112       -3.9596023484
 H       -11.7809771062        1.3713052387       -6.2931222539
 H       -11.4955034216        3.1357212960       -6.1115136636
 H       -12.5024899012        2.4144674962       -5.1016681474
 H       -11.6231462657       -0.1222718972       -4.0636249800
 H       -11.9287305468        1.0565220291       -2.9232326727
 H       -10.4214705928        0.2975917345       -2.8945429011
 H        -2.7586366471       -1.3075677471       -3.2152391317
 H        -3.4677250302        0.2318932724       -3.5436517427
 H        -3.0439766454       -0.6916277922       -4.8009629565
 H        -5.6333368932       -2.4408153401       -5.3379570519
 H        -6.1343701370       -3.0081620602       -3.6454213202
 H        -4.4641257598       -3.0661070106       -4.4726289944
 H        -4.0224208366        3.4685768885       -0.0239526672
 H        -5.2567100524        4.1906977392       -1.0997565161
 H        -4.8645539008        2.4356662023       -1.2035486368
 H        -4.6632097458        4.3801957779        1.7330508866
 H        -5.0408541610        2.9267901857        2.7021305246
 H        -6.3308683350        4.1739245768        2.2359263178
 H        -9.5882749351        7.2614203255        2.1505037996
 H        -9.6801491559        7.9177208246        3.9151105682
 H       -10.9660356168        7.2164857697        3.2417418654
 H        -8.2510316644        5.7350689543        5.3375927032
 H        -7.5168230940        5.6275464264        3.8081345557
 H        -8.0159048541        4.2320035602        4.4642082471
 H       -13.3457273500        4.7469057801        8.7839178649
 H       -13.2626042322        3.1709704243        7.8754167920
 H       -14.2243218569        3.1574893154        9.2527002293
 H       -16.2866608664        2.6802042527        7.1034175692
 H       -15.1152387875        3.0056788398        5.9025831557
 H       -16.5405185573        4.1307386674        6.0520967802
 Na       -9.3932853522        4.7257955927       -1.0477665861
