117

 C       -15.7929946903        6.5578243744        9.2673567318
 C       -15.9841683442        5.3875723926        8.3387211457
 O       -17.0537737430        4.8494610162        8.4196095651
 C       -14.8206649944        4.7301273308        7.5913348021
 C       -13.9834960781        5.6089286594        6.6717810389
 O       -14.1196212121        6.8524768580        6.5814730790
 C       -13.0678036674        4.9470344893        5.6801449360
 C       -12.0877642710        5.9110351793        5.0560786292
 C       -10.8674066786        5.0115937551        4.4386528614
 O       -10.8125140527        3.8410912465        4.5616605007
 C        -9.6102332174        5.7923949692        3.5652921701
 C        -9.2809532005        4.9027415911        2.1348534899
 O        -9.6255735264        5.4510730747        1.0541763740
 C        -8.8028734120        3.4504820935        2.2049572218
 C        -8.5174595220        2.7372090633        0.8656318169
 C        -7.2403288305        3.1416989999        0.0944253444
 O        -7.3753996578        3.6566407521       -1.0212534678
 C        -5.8388232457        2.8440722678        0.7137374521
 C        -5.5584393693        1.2855066350        0.9867631283
 O        -5.1582832584        0.8119331579        1.9602359053
 C        -6.0522863729        0.2755069790       -0.2294133325
 C        -4.7832442283       -0.4454057181       -0.9272216982
 C        -5.2917585614       -1.5527914002       -1.8486353096
 O        -6.0409736112       -2.4341428503       -1.3898210612
 C        -5.1118968302       -1.3826997236       -3.4403531866
 C        -5.9700833300       -0.1846220866       -3.8259176703
 O        -5.6183234288        0.9802617971       -3.5312440231
 C        -7.2131189643       -0.2690331450       -4.7158690361
 C        -8.0638577609        1.0604194683       -4.6122205596
 C        -9.4487645673        1.0040554546       -5.4445482831
 O        -9.7401879808        0.2517071546       -6.3163882911
 C       -10.6987161765        1.7096657527       -4.6221736145
 C       -10.1451294474        2.8699027479       -3.7050510734
 O       -10.0206330669        2.7493067553       -2.5153350305
 C        -9.6312706733        4.1158798730       -4.5180626435
 C       -10.6151656667        5.3543488202       -4.3012550329
 C       -10.0319590028        6.5149649970       -3.3489656742
 O        -8.9104154411        6.4302568770       -2.9272729149
 C       -11.0715031817        7.5580291617       -2.9795151777
 C       -11.8564296365        6.7579514023       -1.7515299148
 O       -11.6701266870        5.5933895621       -1.4059562985
 C       -13.1138557455        7.5211609694       -1.3219241027
 C       -10.4471840002        9.0042006641       -2.6303509703
 C       -12.1396344781        7.8005405409       -4.1105144591
 C       -11.6592475800        2.3137768908       -5.6168686320
 C       -11.4843083680        0.5811492164       -3.8586568647
 C        -3.6798588813       -0.9461756168       -3.7890142526
 C        -5.3891412409       -2.8023886275       -4.2666751586
 C        -4.6774175373        3.1586787678       -0.3900565774
 C        -5.7594938337        3.7067642403        1.9521126064
 C        -9.9138017200        7.2995554941        3.2270737636
 C        -8.3503288796        5.7169187228        4.4143813564
 C       -13.8312328125        4.1158747963        8.6968530794
 C       -15.4091343176        3.3633536994        6.8881699569
 H       -16.7173859528        7.1919774893        9.4193291740
 H       -14.8175868472        7.1363314728        9.1528541760
 H       -15.7311181643        6.0391518171       10.2047106975
 H       -13.7432774192        4.6912564396        4.8918928804
 H       -12.5975097179        4.1152803274        5.8968729006
 H       -11.7010481457        6.5909584563        5.8506146401
 H       -12.6348653770        6.4533668422        4.2190298681
 H        -9.7591237994        3.0610123159        2.7323947779
 H        -8.1643197690        3.4084586176        3.0078180295
 H        -9.3701748028        2.8808813889        0.1858842139
 H        -8.4043512318        1.7090465511        1.1322423803
 H        -6.6712026067        0.8636779404       -0.8536800681
 H        -6.6461874406       -0.5708558973        0.2887348217
 H        -4.1827847661       -0.8453941876       -0.0259519057
 H        -4.2683396958        0.3121817843       -1.6641201047
 H        -7.6686218018       -1.1941932440       -4.5933394334
 H        -6.8109161635       -0.4292017385       -5.7729239464
 H        -7.4298640164        1.8614402284       -5.1249063225
 H        -8.2278116985        1.4155986204       -3.5159314909
 H        -9.6278367489        3.7406266956       -5.5904993528
 H        -8.5755850317        4.5425057726       -4.2168870529
 H       -11.5154628696        5.0094623140       -3.9600680593
 H       -10.6898469894        5.8859204776       -5.1862766369
 H       -13.1996018557        7.9961860263       -0.3144952852
 H       -13.8994682278        6.7553629537       -1.6321973728
 H       -13.3026847016        8.3082569211       -2.0551789442
 H       -11.2031991245        9.7420623339       -2.3269554925
 H       -10.1761363958        9.5826973835       -3.5332212912
 H        -9.6526580254        8.9090477941       -1.9563942042
 H       -12.8704747104        6.9690398566       -4.2402487757
 H       -11.5902875391        7.9304867346       -5.0359676289
 H       -12.4983682546        8.7362888642       -3.9036978269
 H       -12.0502495442        1.5958850491       -6.3983310656
 H       -11.2068163504        3.0749455507       -6.2291675348
 H       -12.5126225695        2.9644649911       -5.1441055354
 H       -11.5979760917       -0.4145116865       -4.4675597010
 H       -12.5377945150        0.8184938856       -3.8814934290
 H       -11.3158995111        0.3429406642       -2.8008133444
 H        -2.9678502892       -1.3858238490       -3.1465378221
 H        -3.4363627491        0.1584207589       -3.9051251969
 H        -3.3231113265       -1.3600781316       -4.8001632250
 H        -5.0845319725       -2.7280673905       -5.2842331706
 H        -6.4091745916       -3.0047772163       -4.1432235567
 H        -4.7186215156       -3.6191784657       -3.9769330637
 H        -3.8331247910        2.4588731316       -0.2618313834
 H        -4.5500728054        4.2251480124       -0.2041500857
 H        -5.2325304909        3.2038541967       -1.3636425567
 H        -4.7093684448        3.8020160447        2.1937607786
 H        -6.2367939747        3.0789396091        2.7370526508
 H        -6.1759277601        4.7099517812        1.6880922074
 H        -8.8925906972        7.5115305629        2.8483119391
 H       -10.0701964961        7.9136633050        4.1448022669
 H       -10.7139313155        7.4828759506        2.5272174048
 H        -8.2848207168        6.6151431856        5.1490537144
 H        -7.3643525052        5.6995504856        3.8965894480
 H        -8.3905003735        4.7313106759        4.7488376958
 H       -13.3698392722        5.0430989846        9.0238117150
 H       -13.1102441341        3.5750171924        8.1121641799
 H       -14.2003954023        3.5575926374        9.5289913209
 H       -16.0162195499        2.6656245731        7.6007822785
 H       -14.5782962784        2.8632443248        6.3604630637
 H       -16.1123549251        3.5723958494        6.0741170238
 Na       -9.2744330467        4.7386376038       -1.1449269375
