117

 C       -15.6317785659        7.4626808551        8.2184745341
 C       -15.5749458129        5.8839619102        8.0841171576
 O       -16.5341310323        5.1530181287        8.1949466147
 C       -14.0692292859        5.3071694479        7.8348675760
 C       -13.6245518028        5.7605764775        6.4723605639
 O       -14.2664382454        6.6006836249        5.7767098731
 C       -12.3974837851        4.9913637024        5.9230907575
 C       -12.0102083497        5.7378361671        4.6071776470
 C       -11.0093964480        4.9994311999        3.7851005704
 O       -11.1591503418        3.8332810434        3.5501483477
 C        -9.7334929408        5.7766582513        3.1868667150
 C        -9.1525751796        4.8013502219        2.1307855994
 O        -9.4715401185        4.8869953186        0.9033757838
 C        -8.3576450870        3.5597871399        2.5269924997
 C        -8.0707652413        2.7346495709        1.3362907538
 C        -6.9017601141        3.2590226414        0.4234010080
 O        -7.0846031576        3.8881587835       -0.6433715915
 C        -5.5206413682        2.7911721213        0.8590946193
 C        -5.5538518792        1.2279932272        1.1159054660
 O        -4.8626717450        0.8611364177        2.0016102728
 C        -6.2111326680        0.2254747808        0.1519984922
 C        -5.2218732202       -0.6911935174       -0.5078285867
 C        -5.9251685974       -1.7249016342       -1.4636281651
 O        -6.8732602274       -2.3739274968       -0.9670080361
 C        -5.5193302788       -1.7815484681       -2.8962313316
 C        -6.4823350984       -0.6776929033       -3.6501434766
 O        -6.0911638047        0.1783106510       -4.4305583482
 C        -8.0581713072       -0.8287760206       -3.3904892621
 C        -8.7174754718        0.6000502140       -3.3109490381
 C        -9.2629413786        0.8592107539       -4.7132791288
 O        -8.9504025188        0.3497669857       -5.7100277002
 C       -10.6544139323        1.8118871749       -4.7851955527
 C       -10.2793046569        3.1955066512       -4.1818549410
 O       -10.5316681610        3.5022688724       -3.0305258336
 C        -9.5842402736        4.2413895466       -5.0958128086
 C       -10.3893934433        5.5390843975       -5.0891402103
 C       -10.2301891039        6.2561818623       -3.7083863963
 O        -9.3071260567        5.8971450860       -3.0155808556
 C       -11.3174693293        7.3527925827       -3.3067958694
 C       -12.0968105792        6.7634753088       -1.9059287920
 O       -11.5116192785        5.9786115307       -1.1630142385
 C       -13.4533267114        7.3173237674       -1.6754290720
 C       -10.4097751292        8.6372874392       -2.9579979093
 C       -12.2897193932        7.9912705633       -4.3658649230
 C       -11.1874329526        1.6248716774       -6.2170817626
 C       -11.6360636312        1.2203990815       -3.7368334252
 C        -4.0164121911       -1.6518823501       -2.9863307406
 C        -5.7792494178       -3.1659011011       -3.4183593516
 C        -4.5462873228        3.1797226269       -0.3700881033
 C        -4.9919560303        3.5388872380        2.1201971091
 C       -10.2979247889        7.0363387503        2.5432053677
 C        -8.7491550810        6.3040358137        4.2433411879
 C       -13.2540872481        5.7622626314        9.0391926005
 C       -14.1190805176        3.7411210185        8.0244063718
 H       -16.2228794347        7.8832665731        9.0470909638
 H       -15.8648505182        7.8623509101        7.2035963476
 H       -14.6864571888        7.7270801158        8.5394124103
 H       -12.9271270889        4.0355355451        5.4574616563
 H       -11.5310417728        4.8656486085        6.4792515414
 H       -11.6822690689        6.7213668829        4.8725331009
 H       -12.8667676309        5.9826060085        3.9466288482
 H        -8.9781858337        2.9227433976        3.1964463618
 H        -7.5581341553        3.8142632135        3.0921955160
 H        -8.9590552519        2.7991369580        0.6222067218
 H        -8.0449889007        1.7140035020        1.6710256768
 H        -6.8912919212        0.7798398457       -0.3999535013
 H        -6.9309728889       -0.4377269047        0.7552963834
 H        -4.6624839765       -1.1888385537        0.1817131706
 H        -4.5146667104       -0.1395549764       -1.0392089918
 H        -8.0431625372       -1.5728089808       -2.6568806216
 H        -8.5283556344       -1.4362649622       -4.1910186892
 H        -8.0059945458        1.3360847763       -2.9670403859
 H        -9.4197523977        0.5480148061       -2.5477019651
 H        -9.4899766792        3.9739690154       -6.1099904723
 H        -8.6142766242        4.5373382302       -4.7301874574
 H       -11.4817395279        5.3623362251       -5.3729148568
 H       -10.0069838741        6.3366671516       -5.8640322388
 H       -13.9307417932        7.1740104050       -2.6300841258
 H       -13.4522237532        8.3425713560       -1.3562334199
 H       -13.9287320285        6.8337435845       -0.8526036282
 H       -10.9749822508        9.3757108429       -2.3684289623
 H        -9.8912379690        8.9645124041       -3.8888340905
 H        -9.6419334441        8.3869985504       -2.2850001171
 H       -12.9430387048        7.4615285858       -5.1551634273
 H       -11.5918612756        8.7095198833       -4.8168563287
 H       -12.9006116093        8.5912802290       -3.7757789434
 H       -11.8783170979        0.7170597327       -6.2976459102
 H       -10.3433576894        1.6459402231       -6.8739199292
 H       -11.9274146502        2.3284414646       -6.4195628089
 H       -11.5392935600        0.0793197206       -3.7274673286
 H       -12.5961578919        1.4359487691       -4.0689178236
 H       -11.5990422145        1.5231378584       -2.7281529143
 H        -3.5630807250       -1.9234696498       -2.1457517636
 H        -3.7159542718       -0.6002631206       -3.1278084280
 H        -3.6838443582       -2.2451915746       -3.9159691401
 H        -5.8059120736       -3.1073249466       -4.4800353311
 H        -6.7868616779       -3.4745996903       -3.2074442741
 H        -5.1681247342       -3.8777032094       -2.8594673606
 H        -3.5610777545        2.8178737296       -0.0072076315
 H        -4.7323564150        4.2547636474       -0.4447684205
 H        -4.6794034555        2.7573579407       -1.4224494460
 H        -3.9380335734        3.6346201487        2.0188956845
 H        -5.2857570838        3.1757603944        3.1091562926
 H        -5.4734188161        4.4875833933        1.9199129482
 H        -9.8261586459        7.0678962791        1.5142508534
 H        -9.8478815404        7.9259083297        3.0534817093
 H       -11.3399990394        7.0505412224        2.3228458083
 H        -8.9237315510        7.1691631436        4.9698648505
 H        -7.9321786974        6.5768189641        3.5940902144
 H        -8.4608941538        5.4389382073        4.8131829886
 H       -12.7645019541        6.7132465391        8.7062583712
 H       -12.3467594788        5.1152856145        9.1649802015
 H       -13.8049373564        5.9452342029        9.9693211093
 H       -14.2794142586        3.4113105875        9.0906262945
 H       -13.2812356739        3.3482501184        7.5107105394
 H       -14.9591806757        3.2960103790        7.4845294398
 Na       -9.6337571075        4.5693806962       -1.3099986645
