117

 C       -15.8343669622        7.6557253190        7.8978080707
 C       -15.4412738434        6.0954805761        8.1616300990
 O       -16.3126372085        5.2754214987        8.1048699577
 C       -13.9975782809        5.5312443780        8.0621147543
 C       -13.6385441008        5.7088593323        6.5050984536
 O       -14.3226758509        6.4908035371        5.9210692622
 C       -12.2685931702        5.1365000520        5.9617005544
 C       -11.9499677362        5.8909997993        4.6881756023
 C       -11.1410971028        5.1022640691        3.6841215190
 O       -11.1911089065        3.9110214784        3.5272393834
 C        -9.8977102231        5.7811259471        3.1630862285
 C        -9.2953382111        4.8927461025        1.9669030606
 O        -9.8262923804        4.8704500625        0.8904938856
 C        -8.2609688776        3.8206178787        2.5079323667
 C        -7.9543476524        2.7111871952        1.3920292706
 C        -6.8743987679        3.1622209844        0.4127880941
 O        -7.2192274761        3.5827953274       -0.6734556493
 C        -5.2625946465        2.8549642172        0.8020823843
 C        -5.3007822076        1.3660443061        1.1925147084
 O        -4.8454690040        0.9141939975        2.2194389887
 C        -6.0700611770        0.3828184550        0.1195405918
 C        -5.2219656961       -0.7939728583       -0.3466903394
 C        -5.9451666044       -1.8075809689       -1.1770036597
 O        -6.7817945031       -2.5224145871       -0.6791319301
 C        -5.7367922674       -1.9836349354       -2.7138191154
 C        -6.6818628353       -0.9628303063       -3.5037271402
 O        -6.2306703704       -0.1623795587       -4.2641585797
 C        -8.1853028807       -0.9375210244       -3.0638206032
 C        -8.8360362594        0.3941335821       -3.4184601953
 C        -9.3427512695        0.6788105683       -4.8303925963
 O        -8.7059998145        0.5316595569       -5.8488983486
 C       -10.7427356585        1.6535011513       -4.8505318042
 C       -10.2148169407        3.0696471102       -4.2902004991
 O       -10.3571212805        3.3126657869       -3.0751102194
 C        -9.6439901550        4.1084097134       -5.2342293605
 C       -10.3391966203        5.5234609246       -5.2370130362
 C       -10.2678645904        6.3316433550       -3.8720506176
 O        -9.2211703520        6.2083053849       -3.2292270726
 C       -11.3156698804        7.5201673413       -3.3128280537
 C       -11.9740250917        6.8766568762       -2.0163494533
 O       -11.3129781937        6.1072917152       -1.3473412516
 C       -13.5253818732        7.1211825554       -1.8219302619
 C       -10.3516686456        8.5669257211       -2.5983539364
 C       -12.3299008114        7.8291670012       -4.5422464158
 C       -11.2916845881        1.8276168677       -6.3448525039
 C       -11.7594550314        0.9386114996       -3.8322314793
 C        -4.2657950289       -1.5399907327       -3.2221980030
 C        -6.3039126196       -3.4132357940       -3.2129509529
 C        -4.3547496862        3.0849070380       -0.4668679365
 C        -4.7632759143        3.6335901319        1.9945674622
 C       -10.3351112541        7.0287043352        2.3663084328
 C        -8.9509212269        6.1084541056        4.3775527524
 C       -13.0216838432        6.2976554525        8.9434927279
 C       -13.9510120737        3.9484858895        8.3640024467
 H       -16.3905974123        7.8916936173        8.8126423754
 H       -16.5495075308        7.6345314724        7.0990124499
 H       -15.0081030014        8.4158150318        7.7957776129
 H       -12.2390045518        4.0545530776        5.7838959883
 H       -11.5963975744        5.5284220562        6.7457610675
 H       -11.6211753712        6.9201145342        4.9785220818
 H       -12.9376017551        6.2209862502        4.3497889246
 H        -8.7482871197        3.4177430447        3.4231034074
 H        -7.2066467246        4.2445227927        2.8308834441
 H        -8.7417727208        2.3515616625        0.7721201751
 H        -7.5798740658        1.8341171057        1.9783371039
 H        -6.5666947083        1.1117763429       -0.6459552531
 H        -6.9138617395       -0.0798186790        0.5781037545
 H        -4.7935297849       -1.3519592208        0.6179959646
 H        -4.1540595338       -0.5502407460       -0.7762883138
 H        -8.2137125440       -1.4032556713       -2.0254049156
 H        -8.5835472328       -1.7817772163       -3.6006397879
 H        -8.1255022061        1.1640324993       -3.0941259079
 H        -9.6113951278        0.3673426588       -2.6098752383
 H        -9.8024433347        3.6436942878       -6.2856267239
 H        -8.5792569573        4.5178839406       -5.2426492847
 H       -11.3620216950        5.4220636368       -5.3832005451
 H       -10.0920820190        6.2333668332       -5.9582665939
 H       -14.0581509381        6.7072193858       -2.6867338852
 H       -13.7469406276        8.2206131937       -1.7120971281
 H       -13.8418227975        6.7423602280       -0.8698201471
 H       -10.9094731738        9.1384229497       -1.9088857474
 H        -9.7995158414        9.0648178779       -3.3197815276
 H        -9.5721222926        8.1028982197       -1.9258893729
 H       -13.3030119508        7.6842738191       -4.1700681093
 H       -12.1774579905        7.1654978278       -5.3628618441
 H       -12.3501353847        8.9090902929       -4.9410577697
 H       -12.1085641860        1.1132387363       -6.3885720296
 H       -10.5134247152        1.6298372459       -7.0899315698
 H       -11.9153515009        2.8497022685       -6.5680351775
 H       -11.6256511130       -0.0900915862       -3.8614808649
 H       -12.8294445285        1.2684464672       -4.0005559501
 H       -11.5105256900        1.2064481644       -2.7869136314
 H        -3.4512215065       -1.9134471088       -2.4301487770
 H        -4.1997998137       -0.4270813190       -3.1130811257
 H        -4.1054101863       -1.7003775645       -4.2489856425
 H        -5.8878585367       -3.7080713778       -4.1755437437
 H        -7.4118232517       -3.4469063864       -3.3745766167
 H        -6.1502969287       -4.0901283728       -2.3644058440
 H        -3.6460346879        2.3064918814       -0.6864133680
 H        -3.8565117570        4.0419218014       -0.2962115183
 H        -4.9919340410        3.1779309508       -1.2764440137
 H        -3.8540619428        3.0225918990        2.2368284591
 H        -5.5229389071        3.5292060242        2.7679278905
 H        -4.5531105705        4.6836152055        1.9012304098
 H        -9.6495413247        7.1862647277        1.6176106942
 H       -10.5489258570        7.9038126689        2.9615509920
 H       -11.2718980531        6.8053296773        1.7759415232
 H        -9.5755098883        6.0682967504        5.1870997496
 H        -8.4967499758        7.1066947121        4.2855782228
 H        -8.2657548408        5.3588915338        4.6283351670
 H       -12.9372499839        7.3064948851        8.5383640375
 H       -11.9943797111        5.9259796000        9.0113836547
 H       -13.3971668448        6.3394658763       10.0054042923
 H       -14.3823628878        3.6388894478        9.3590703275
 H       -12.9216629350        3.4247157144        8.3593324704
 H       -14.5488884421        3.4451039062        7.6286910418
 Na       -9.4746718793        4.5915566275       -1.2964735044
