117

 C       -16.1904922848        7.7646950343        8.1910388512
 C       -15.6374142719        6.3745937232        8.5742851106
 O       -16.1938832545        5.3368194201        8.8284694035
 C       -14.0348125996        6.3736746618        8.2540962776
 C       -13.8259937198        6.1339560877        6.6544929577
 O       -14.5906757864        6.3577008766        5.7336361399
 C       -12.4564542820        5.4969776323        6.1068689536
 C       -12.0594896037        5.9707836929        4.7118951642
 C       -11.1653839174        5.1439997616        3.8127997744
 O       -11.2337569957        3.9218414741        3.7007554991
 C        -9.9100520065        5.9759809311        3.0251617375
 C        -9.1321795474        5.0512119576        1.9895121876
 O        -9.5204056827        5.0864890484        0.7949582873
 C        -7.9872834082        4.1496485853        2.4194481187
 C        -7.8012809914        2.9607494728        1.3656242115
 C        -6.7919237828        3.2656861899        0.2156723852
 O        -7.2286526783        3.7447573644       -0.8291254929
 C        -5.2013345162        2.8461974399        0.4274517696
 C        -5.1573288205        1.2724264240        0.7794305311
 O        -4.6466900074        0.8910734920        1.7723349654
 C        -5.7789711481        0.2482800167       -0.2774345849
 C        -5.0762762599       -1.1451108899       -0.3561972750
 C        -6.0577478100       -2.2104248645       -0.8258255779
 O        -6.9559878116       -2.6292914905       -0.1025992265
 C        -6.1304883177       -2.4016212327       -2.4721641102
 C        -6.8755472354       -1.1377033073       -3.0155655542
 O        -6.2641103341       -0.2040167061       -3.5152653313
 C        -8.4150443243       -1.2816402579       -2.9925307262
 C        -9.3056723310       -0.0666350173       -3.2335909355
 C        -9.4344846017        0.4576591901       -4.6215208827
 O        -8.6810819035        0.1742398471       -5.5672828455
 C       -10.6883787957        1.5613550878       -4.8645885205
 C       -10.1873011863        2.9022027651       -4.1900256353
 O       -10.3274818122        3.0483561035       -2.9473946117
 C        -9.4616767774        3.9102247904       -4.9779550155
 C       -10.3574234516        5.2103072129       -5.0008950682
 C        -9.9578371360        6.3410474929       -4.0433401620
 O        -8.8959579208        6.2548336705       -3.4691196377
 C       -11.1256831810        7.3782301754       -3.5130809318
 C       -11.8154901331        6.4659164770       -2.3424039304
 O       -11.2135723173        5.6739016927       -1.6879851542
 C       -13.3027355872        6.6887953027       -2.2318209671
 C       -10.2941144365        8.4947079127       -2.9055444871
 C       -12.1699261105        8.1489189754       -4.4461760698
 C       -11.0045440485        1.7733341034       -6.3566380410
 C       -12.0004351935        1.2186714572       -4.1823725345
 C        -4.6633107738       -2.5791515635       -3.0941625812
 C        -6.9997325571       -3.6759354758       -2.7440649460
 C        -4.4911189048        3.0231632149       -0.9168735340
 C        -4.5493019861        3.5524358397        1.5622888688
 C       -10.6671793595        7.0823323218        2.1318858745
 C        -9.0246248989        6.6950937022        3.9327076489
 C       -13.2034083969        7.5897658404        8.7627698015
 C       -13.5290857957        5.0628196850        8.9181226188
 H       -15.8817166379        8.6025790974        8.8513307881
 H       -17.2859268660        7.7097225543        8.2355090040
 H       -15.9139125062        7.8944004406        7.1756378817
 H       -12.6100683165        4.3252160143        5.9177997549
 H       -11.5596282441        5.4648209247        6.8688423219
 H       -11.6768124639        6.9425061887        4.8598193507
 H       -12.9516365704        6.1197224412        4.0568093452
 H        -8.3719652921        3.6629786947        3.4097434690
 H        -7.1104577105        4.7490138687        2.4610071769
 H        -8.8665715539        2.8386514107        1.0201885463
 H        -7.5104495083        2.0509634158        1.8516288750
 H        -5.7982859379        0.7290064898       -1.2210706991
 H        -6.8662288489        0.1696745528        0.0695589741
 H        -4.7801993350       -1.4782133234        0.6820504848
 H        -4.0965964862       -1.2639728618       -0.8942988640
 H        -8.6845573550       -1.6616400355       -2.0272743599
 H        -8.8693171952       -1.9622875501       -3.7765112203
 H        -8.8049773887        0.6648077057       -2.5476438274
 H       -10.2312105445       -0.3889583921       -2.7785448273
 H        -9.2605148381        3.8602815156       -6.0626908306
 H        -8.4561431413        4.0082830618       -4.4181075217
 H       -11.3628465690        4.9088651203       -4.9557201643
 H       -10.2670683419        5.6587991771       -6.0103860605
 H       -13.7220741760        6.1307343297       -3.0832940247
 H       -13.5721042527        7.7274328361       -2.2886383226
 H       -13.6479782121        6.3376384693       -1.2256131448
 H       -10.7886542923        9.3363678501       -2.4060887761
 H        -9.7107298525        9.0319424698       -3.6822909974
 H        -9.6090468208        7.9710316706       -2.3198850833
 H       -12.9201908336        8.7601270428       -3.8337110277
 H       -12.7802286234        7.5460567056       -5.1297705632
 H       -11.7173750966        8.8876325851       -4.9966801804
 H       -11.1821928310        0.7061669550       -6.7120859265
 H       -10.1348274165        2.1305318097       -6.9363073787
 H       -11.7072967461        2.4985821679       -6.4380473008
 H       -12.4234284178        0.2391747965       -4.5939061692
 H       -12.6715553256        1.8898542967       -4.6139501863
 H       -11.9912933997        1.3445688901       -3.0981583401
 H        -3.9655790516       -3.1064525953       -2.5242565238
 H        -4.3983855789       -1.5393632836       -3.3911446720
 H        -4.8604388262       -3.0524646501       -4.1174430653
 H        -7.2691016287       -3.7418016376       -3.8000894219
 H        -7.8569460665       -3.7310874209       -2.1114006510
 H        -6.3176083316       -4.5521238252       -2.7642784279
 H        -3.4794176459        2.9702224794       -0.9065872028
 H        -4.6125092392        3.9836671207       -1.2982756190
 H        -4.9516862374        2.3364273597       -1.5448858705
 H        -3.5024377099        3.5502948586        1.2367802591
 H        -4.5858571131        2.9540772725        2.4664043592
 H        -4.8549090421        4.5753256945        1.8242112741
 H       -11.3294054869        7.7964981005        2.6944183048
 H       -10.9173670665        6.7878240892        1.1491716090
 H        -9.8828964061        7.7167707531        1.9319870119
 H        -9.0546478722        7.7411759969        3.6901707121
 H        -8.0733202586        6.3273733908        3.9487093965
 H        -9.3407169070        6.4970513506        4.9545981996
 H       -13.2068195038        8.4466169323        8.0463016439
 H       -12.1810286960        7.1584035460        8.9827838520
 H       -13.5107479383        7.9493543857        9.7479627241
 H       -13.2552537828        5.0770763094        9.9720250999
 H       -12.4850113197        4.9265796286        8.5995348279
 H       -14.0521581665        4.0304177949        8.7202318465
 Na       -9.2045438223        4.5627598945       -1.6265652634
