117

 C       -16.3262366398        7.2473935004        7.8412082565
 C       -15.1600020298        6.6149795916        8.4821560592
 O       -15.2441327830        5.9397880510        9.4938663164
 C       -13.5651616832        6.9553326642        7.8897475276
 C       -13.6318013061        6.4519618357        6.3107199414
 O       -14.6723319390        6.6830995736        5.6852208991
 C       -12.5229025319        5.5263178229        5.7488087862
 C       -12.1982475748        5.9433093261        4.3307117646
 C       -10.8254884775        5.5441050807        4.0130313144
 O       -10.2465432778        4.5152222238        4.3390597422
 C       -10.0485772384        6.3182252531        2.8882394033
 C        -9.2689584427        5.3182308798        1.8763713276
 O        -9.3816500672        5.5146423947        0.6553422945
 C        -8.3248618425        4.2441624705        2.3685945064
 C        -8.0593017141        3.1881842424        1.2657441721
 C        -6.9323989637        3.4619921097        0.1858765523
 O        -7.3411632399        3.9918933017       -0.8560245520
 C        -5.4680207105        2.9177031498        0.3027938609
 C        -5.2378699789        1.3449816833        0.6345675554
 O        -4.1644739281        1.0390096403        1.0022931652
 C        -6.2906636518        0.1779410271        0.0159916229
 C        -5.5025861888       -1.0779874323       -0.2042946788
 C        -6.4377836933       -2.1521978373       -0.6597745800
 O        -7.4311963514       -2.4710038137        0.0592164753
 C        -6.4597819756       -2.7091424043       -2.1205249790
 C        -7.4969992750       -1.7647853979       -2.9555819974
 O        -7.0059536733       -1.1039188761       -3.8783125566
 C        -8.9405528720       -1.7367213571       -2.5602509677
 C        -9.6486354199       -0.3059566581       -2.9558392956
 C        -9.6214576753        0.0375944250       -4.4283236462
 O        -9.0467204353       -0.6112776888       -5.3039558080
 C       -10.4143356169        1.4118269625       -4.8066348241
 C        -9.7232538863        2.7216584816       -4.0724366672
 O        -9.8214515458        2.6181197169       -2.8579444618
 C        -8.9858088702        3.8027089347       -4.7942775242
 C        -9.9044720948        5.0602936601       -4.9711837249
 C        -9.5622876720        6.0461452717       -3.7748707643
 O        -8.6084900904        5.9201920120       -3.0001087267
 C       -10.7418081244        7.0044738328       -3.4300623578
 C       -11.9335292942        6.3064492028       -2.7147089616
 O       -11.6827262614        5.4083348859       -1.9139140612
 C       -13.3824455078        6.8621762271       -2.6906529981
 C       -10.2198324286        8.2153720166       -2.6743054280
 C       -11.3726972741        7.6032067102       -4.7479025392
 C       -10.7031296720        1.4586493632       -6.4734629341
 C       -11.8695032904        1.3129681215       -4.1318073547
 C        -4.9688496321       -2.7216203916       -2.7779864140
 C        -7.0812230805       -4.0959612350       -1.9420364496
 C        -4.7742014574        3.1575087025       -1.0802618723
 C        -4.8402466414        3.7082225922        1.4320324777
 C       -11.2214677604        7.0632411303        2.0876062180
 C        -8.9574443259        7.2561210055        3.5238235023
 C       -13.4398985369        8.5136994597        8.0485220607
 C       -12.6918933706        6.0116251036        8.7574628884
 H       -16.5243660597        8.2714082462        8.2925318834
 H       -17.1507846464        6.6040114623        8.2479908564
 H       -16.4820180399        7.2920161523        6.8070068085
 H       -12.8066827734        4.5439993722        5.9914483298
 H       -11.7343415528        5.5165380036        6.3313124053
 H       -12.1315317884        7.0336990173        4.4148970886
 H       -12.9910703874        5.6353121070        3.7129770112
 H        -8.6619787861        3.6661943103        3.1540455159
 H        -7.4647132560        4.8218807420        2.7085421790
 H        -9.0092799704        2.9830490310        0.8581958523
 H        -7.8038658795        2.2840727482        1.8735334494
 H        -6.7298366948        0.3956189406       -1.0197652221
 H        -7.0953152789        0.0647325100        0.6806268923
 H        -5.0289342046       -1.3761461707        0.6856313300
 H        -4.8986702797       -1.1089135308       -1.0529672420
 H        -9.0637364580       -1.8179471318       -1.4385989402
 H        -9.4434264180       -2.5039787867       -3.0730957875
 H        -9.1654976740        0.4201300958       -2.3535991002
 H       -10.7249151709       -0.4502370471       -2.5890059463
 H        -8.7328117133        3.4542423695       -5.7872359037
 H        -8.1163702609        3.9726720889       -4.2572475178
 H       -10.9260837953        4.6314127599       -4.7493926938
 H        -9.8521179101        5.6863496740       -5.9670930148
 H       -13.5307039853        7.9747191223       -2.7520691176
 H       -13.6411256291        6.7247839959       -1.5717575574
 H       -14.0316429246        6.3969232517       -3.4055139835
 H       -10.9792867039        8.8009329200       -2.2002243043
 H        -9.7074728704        8.8762030519       -3.3164173355
 H        -9.5481800879        7.8354439091       -1.8685334356
 H       -11.9985706610        8.4775703433       -4.6561920757
 H       -12.1000958837        6.9534769286       -5.2000171334
 H       -10.6369092940        7.7954745432       -5.5528075986
 H        -9.9068473804        2.2245382869       -6.8391333899
 H       -11.7306733820        1.7748722867       -6.6971338867
 H       -10.4096645999        0.5334709341       -6.7851075278
 H       -12.3352658203        0.3515908141       -4.4741829023
 H       -12.5466588306        2.1961343307       -4.2272554576
 H       -11.5875005809        1.3225708070       -3.0816677707
 H        -4.3134029757       -3.1962680323       -2.1276999830
 H        -4.7357910605       -1.5870139601       -2.9348375161
 H        -4.9588103704       -3.3767328990       -3.7020258953
 H        -7.3980447968       -4.3242240036       -2.9568830210
 H        -7.9064408004       -4.1711041237       -1.2087489458
 H        -6.3463750117       -4.8837068283       -1.6197261659
 H        -4.0766341609        2.3719365799       -1.3856649090
 H        -4.5584549941        4.1947285444       -1.2905780736
 H        -5.5607482146        3.0517558465       -1.8903995115
 H        -3.8284199558        3.2998265327        1.7807885885
 H        -5.3951243530        3.4515719239        2.3333362990
 H        -4.6824229294        4.7377869363        1.1791059101
 H       -11.5831592990        7.9591021475        2.5717526051
 H       -12.1433123036        6.5361162406        1.7447895384
 H       -10.7243092830        7.4972348404        1.1870159816
 H        -8.8621898113        7.0519009190        4.6662459999
 H        -9.1261127148        8.3398667485        3.3903257912
 H        -7.9887381146        7.0277489009        2.9944848290
 H       -14.0762592218        9.1353460831        7.4154187285
 H       -12.4285664612        8.9238078585        7.8760906933
 H       -13.8010348399        8.6868377492        9.0895599472
 H       -12.9523789144        6.1938750860        9.8556994431
 H       -11.6098935336        6.1225136556        8.5145440741
 H       -12.6922937334        4.9438993763        8.6874743410
 Na       -9.3071166388        4.5850427204       -1.4161635722
