117

 C       -16.2605617418        6.8839076074        7.9776628571
 C       -14.8435193939        6.6722510941        8.4376167777
 O       -14.8548088876        6.1238204927        9.5320766665
 C       -13.5147518214        7.0911588531        7.7635138047
 C       -13.4316157850        6.5284129895        6.2993086905
 O       -14.1667076550        7.0486840468        5.4335776421
 C       -12.3937189361        5.5483531997        5.7380081294
 C       -12.0653672969        5.6958197810        4.2634672108
 C       -10.6002394947        5.6136707319        3.9503731726
 O        -9.8310618296        5.0693755424        4.7128329666
 C        -9.9752567831        6.3975513267        2.6602667755
 C        -9.4722273086        5.3674085771        1.7019412746
 O       -10.0441637918        5.3329726137        0.6153380332
 C        -8.3132621875        4.4816201865        2.0859652104
 C        -8.0879943409        3.1714865226        1.4169367795
 C        -7.1438815367        3.3697870556        0.2139866679
 O        -7.4551927352        3.8139806053       -0.8664857361
 C        -5.5201622167        3.0513671266        0.4315448646
 C        -5.1383624024        1.4872653353        0.6819256030
 O        -4.1661931977        1.1143492072        1.2489721363
 C        -6.2200727494        0.3760590821        0.4035225413
 C        -5.6014240489       -0.9296393293       -0.1880254115
 C        -6.7472486581       -1.9695699605       -0.4730445451
 O        -7.7003013039       -2.0972979194        0.3247658537
 C        -6.6376733271       -2.7258095798       -1.9125685913
 C        -7.5577043797       -1.9383548468       -2.9238890281
 O        -7.0007875057       -1.5966438334       -3.9888195077
 C        -9.0802328430       -1.7475431691       -2.6187591284
 C        -9.9369837393       -0.5449252568       -2.9573015867
 C        -9.9922356264       -0.0831142158       -4.4183220898
 O        -9.6289892296       -0.7669699497       -5.3625125165
 C       -10.4976612556        1.5771607661       -4.7212182461
 C        -9.6608568303        2.5530531832       -3.9018234039
 O        -9.6611520470        2.3403266328       -2.7009458379
 C        -8.7625802399        3.5637893020       -4.5679397720
 C        -9.5463418834        4.7551427643       -5.0868659788
 C        -9.4732249708        5.8294559736       -3.9959216813
 O        -8.5362899581        5.6028184150       -3.1954118657
 C       -10.6225777059        6.9527958927       -3.7695179213
 C       -11.8379093553        6.1893036140       -2.9550824113
 O       -11.6259973725        5.2051200848       -2.2375322816
 C       -13.2870148291        6.8362969154       -2.6808158612
 C       -10.2233786427        8.0445105010       -2.7732722020
 C       -11.1774522894        7.6721715045       -5.0194060050
 C       -10.3931411188        1.6363131411       -6.2583587085
 C       -11.9570370077        1.4486444518       -4.1516286960
 C        -5.1943505722       -2.8772915928       -2.5124258972
 C        -7.3211208484       -4.2031085807       -1.8551692165
 C        -4.8267445302        3.3727912527       -0.8898897759
 C        -4.9795412063        3.8821856612        1.6235011567
 C       -10.9262732958        7.5081052780        1.9994553826
 C        -8.8364438955        7.2502533890        3.5177365464
 C       -13.6052352519        8.6873587881        7.5088818613
 C       -12.3618297631        6.7022778970        8.6504260842
 H       -16.7372068050        7.5397383056        8.6757526884
 H       -16.9114288748        6.0764632793        7.7364637535
 H       -16.2905923486        7.4504674032        7.0677548975
 H       -12.6271325929        4.4516608081        6.1645388730
 H       -11.4914130121        5.6058104668        6.2204315309
 H       -12.5481106020        6.6524515268        3.8603034528
 H       -12.6156542187        4.8613942603        3.7955649995
 H        -8.3157447626        4.4813564392        3.2035749289
 H        -7.3570675006        5.1743304139        1.8695425382
 H        -9.0371981314        2.6723240897        1.0831383565
 H        -7.6138009653        2.4054428307        2.0724130634
 H        -7.0332469335        0.7503783523       -0.2167517631
 H        -6.5631008919        0.1511158756        1.4477157106
 H        -5.0272992824       -1.3961404830        0.5276963072
 H        -4.9875133088       -0.8919456442       -1.1106069246
 H        -9.2904970215       -1.9816054985       -1.5317930882
 H        -9.4962620259       -2.5512475700       -3.2246385683
 H        -9.5648405854        0.3660679923       -2.3770299433
 H       -11.0027318795       -0.7523788331       -2.5630499372
 H        -8.3261615180        3.0624330144       -5.5075683898
 H        -7.8326169509        3.8197121167       -3.9797014092
 H       -10.6021352993        4.5138418633       -5.2353068328
 H        -9.1097254920        5.0666604986       -6.0022870975
 H       -13.4537844063        7.1113812905       -1.6593064561
 H       -14.0700308328        6.0211602592       -2.7457464029
 H       -13.5801855912        7.5630586446       -3.3347242586
 H       -10.8032873271        8.9375474076       -3.0257025149
 H        -9.1608635107        8.2581572683       -2.8532413809
 H       -10.5159679707        7.8993639672       -1.6587807345
 H       -12.1622713552        8.0038567320       -4.8533930625
 H       -11.1937239471        7.0894489823       -5.9210113958
 H       -10.6134678554        8.5870266586       -5.4064519845
 H        -9.7332632987        0.7763212288       -6.5954450668
 H       -10.0732610274        2.6275749303       -6.4991314383
 H       -11.3444363796        1.6551250529       -6.6648731396
 H       -12.3905813372        0.5817912500       -4.5500208170
 H       -12.4158314754        2.3752344850       -4.5178276631
 H       -12.0057393090        1.4099121939       -3.0833745893
 H        -4.6120327251       -3.3618942228       -1.8181984467
 H        -4.7864199079       -1.8646439164       -2.9460034834
 H        -5.3557792952       -3.3871222518       -3.4721071884
 H        -7.2857719670       -4.6835013817       -2.8166066565
 H        -8.3879337217       -4.1096343053       -1.5473175942
 H        -6.8959875914       -4.7156837520       -1.0533488157
 H        -4.0450040109        2.7553090995       -1.1755376165
 H        -4.7082072538        4.3780790704       -0.9535554740
 H        -5.4649491681        3.2094918807       -1.7222673308
 H        -3.9396815713        3.6700090776        1.8733332715
 H        -5.4630062552        3.5331463365        2.5398893493
 H        -4.9812022708        4.9266150835        1.4453821257
 H       -11.4429770623        8.1262448757        2.6082869272
 H       -11.7695687317        7.0296630396        1.5365147797
 H       -10.3304644614        8.1586744558        1.3188705776
 H        -9.4138698953        8.1163619265        3.7369628272
 H        -8.0245818560        7.6479952306        3.0330371619
 H        -8.5220726934        6.7871838903        4.3749960660
 H       -14.5035325935        8.8875835903        6.9289383827
 H       -12.7798073186        9.0979212170        6.9577304689
 H       -13.6002605087        9.2858823768        8.4683620223
 H       -12.3814162023        7.0449841846        9.7237163432
 H       -11.3315394904        6.8969082383        8.2052586199
 H       -12.2018148623        5.6766868075        8.7588720335
 Na       -9.7969632182        4.1296370362       -1.2833795010
