117

 C       -16.2463016120        6.8836612229        7.8858455614
 C       -14.7817293856        6.6992049724        8.5720069849
 O       -14.5324323057        6.0898424946        9.5745507934
 C       -13.5388040477        7.2292583471        7.6481601213
 C       -13.3300125521        6.7172403277        6.2019697588
 O       -14.1009002351        7.0862049766        5.3133685687
 C       -12.3156526964        5.5458046501        5.7304197180
 C       -12.0015101958        5.5250029293        4.1737609912
 C       -10.5461072548        5.7547991993        3.9485328436
 O        -9.6796214029        5.1521937515        4.5953877496
 C        -9.9728218510        6.5867180258        2.7716777551
 C        -9.5226100713        5.4448176335        1.7309710366
 O       -10.2480112781        5.1710183407        0.7794085227
 C        -8.2851474067        4.6091476519        2.1358430896
 C        -8.0365062383        3.2845110647        1.4536716358
 C        -7.0682015892        3.3365739845        0.3083550361
 O        -7.5199350878        3.5903928907       -0.8278558035
 C        -5.5835030068        3.1613319399        0.5044430692
 C        -5.2444451398        1.5424170295        0.8721272165
 O        -4.1587131653        1.3019208444        1.3049553797
 C        -6.2976781273        0.4333773395        0.4388609422
 C        -5.7946330566       -0.8152036797       -0.1944634642
 C        -6.7965844409       -1.9272027226       -0.5552324414
 O        -7.8208512378       -2.1863909810        0.1074140179
 C        -6.7789059369       -2.8240679618       -1.8164826758
 C        -7.6553595071       -1.9811971785       -2.9150303011
 O        -7.0892218646       -1.5565596744       -3.8559803855
 C        -9.1914275230       -1.9543990025       -2.7518825812
 C        -9.7801430470       -0.5480124615       -2.9197144964
 C        -9.8957503440       -0.0541959979       -4.4115678887
 O        -9.8398441514       -0.8804391013       -5.2827807771
 C       -10.4856846192        1.3588169827       -4.8220293161
 C        -9.5773151501        2.2909914033       -3.9426984092
 O        -9.7223889453        2.2767289629       -2.7278119006
 C        -8.7369883362        3.3455409644       -4.5864746351
 C        -9.4620235365        4.6818138724       -5.0008424121
 C        -9.4955859593        5.7532185580       -3.7600210117
 O        -8.5785529665        5.8469696202       -2.9952397335
 C       -10.7127326373        6.8598298163       -3.7526754523
 C       -11.8173667830        6.1444320730       -2.9621010986
 O       -11.6401527616        5.0768794656       -2.4341953423
 C       -13.1532024688        6.8485115052       -2.8607408844
 C       -10.1027574331        7.9750342833       -2.7990358273
 C       -11.0736847747        7.4462314713       -5.1263929766
 C       -10.5879941849        1.5742602835       -6.3677874463
 C       -11.9244878626        1.6458699164       -4.1956160083
 C        -5.3927032779       -2.9490404295       -2.4423110022
 C        -7.3605425324       -4.1674977261       -1.5741804769
 C        -4.7247314771        3.5253296394       -0.7961134224
 C        -4.9241363861        4.0185155733        1.6610390697
 C       -10.9586445185        7.4809103503        2.1684032376
 C        -8.6020743682        7.2043012944        3.2978108105
 C       -13.7032876057        8.7958309822        7.4881526828
 C       -12.3550168708        6.9346381834        8.5830712123
 H       -17.0587152158        7.3818562436        8.4694927056
 H       -16.6988423193        5.9596852232        7.5324508816
 H       -16.1530188882        7.3842114026        6.9948212417
 H       -12.8513644134        4.7670227536        5.9733466591
 H       -11.3911714207        5.2864299195        6.2094481076
 H       -12.4763967621        6.4315179463        3.7071152849
 H       -12.4640016589        4.6685616575        3.7493588560
 H        -8.4178739673        4.6212501108        3.2058931995
 H        -7.3348447798        5.1685977196        2.0205653139
 H        -8.8844333358        2.9034122758        0.9021438401
 H        -7.7416053707        2.4040817928        2.0944754737
 H        -7.0359025810        0.9500885072       -0.2769152567
 H        -6.7673836358        0.1955759748        1.3639944358
 H        -4.9741841347       -1.2602796562        0.3311844298
 H        -5.3997639433       -0.6758820834       -1.1182544810
 H        -9.5011950011       -2.3833637916       -1.7396960638
 H        -9.5992120655       -2.5548874354       -3.5309493488
 H        -9.3645880567        0.2313200044       -2.3040887748
 H       -10.9414726484       -0.5168802593       -2.6738197165
 H        -8.1265027280        2.7892320328       -5.3610475463
 H        -8.0039786788        3.6911704192       -3.9374528255
 H       -10.5144947540        4.6613950012       -5.3505248855
 H        -8.7613596704        5.1359051657       -5.8705538864
 H       -13.5713454359        6.8149583578       -1.8382021449
 H       -13.8940312626        6.1601878811       -3.3301474306
 H       -13.3055181401        7.8244252019       -3.3576858423
 H       -10.7172333471        8.8780291562       -2.9581765421
 H        -9.0611210253        8.1312045029       -3.0948293473
 H       -10.1832560151        7.8330935203       -1.7138795768
 H       -11.9010562408        8.2005025218       -5.0668577538
 H       -11.2609111353        6.7482082167       -5.9315069490
 H       -10.2924634395        8.0122943356       -5.5506079206
 H       -10.0513438369        0.7653772760       -6.8498946835
 H       -10.3224512092        2.6712892575       -6.5918250287
 H       -11.5830977573        1.7571669922       -6.6818027314
 H       -12.6320297534        0.9104774918       -4.6773584201
 H       -12.0282613191        2.6261848468       -4.5420498289
 H       -12.0324318787        1.4754236851       -3.1641174848
 H        -4.7894344608       -3.4525383772       -1.7182658191
 H        -5.0948681669       -1.9039512145       -2.4913816828
 H        -5.3381053574       -3.1852349648       -3.5811329349
 H        -7.4438015515       -4.5829389436       -2.5476799616
 H        -8.3136466312       -4.2474695012       -1.0916156950
 H        -6.6039697900       -4.6640159734       -0.8901038350
 H        -3.7174803837        3.3819929086       -0.7608021476
 H        -5.0427090204        4.5046379525       -0.9821158081
 H        -4.9746769932        2.9688735366       -1.6315837679
 H        -4.0063450330        3.4256826842        1.8539365850
 H        -5.3633289408        4.1667811144        2.6245633261
 H        -4.4986917862        4.9446724072        1.3339550242
 H       -11.6293485986        8.1542773105        2.7318539333
 H       -11.7085227295        6.8390846842        1.8122897419
 H       -10.4755832180        8.0263366635        1.4504253385
 H        -8.6079286001        8.2471225589        3.2538405353
 H        -7.7641089153        7.0666869129        2.7052802711
 H        -8.4101177326        6.8460360655        4.3286043739
 H       -14.7657988650        9.0094511769        7.2885004283
 H       -13.0997338124        9.4058434807        6.7582643626
 H       -13.4300852994        9.2410111810        8.4899398214
 H       -12.4186599201        7.2064497727        9.6952883043
 H       -11.3070527635        7.0526988734        8.2866183445
 H       -12.2780914577        5.7603935230        8.6816086686
 Na       -9.8030485938        4.1273827349       -1.3924230017
