117

 C       -16.0176380062        6.8104131744        7.8937614950
 C       -14.6136571674        6.5994390255        8.3396733314
 O       -14.4863605957        6.1682617269        9.4591570015
 C       -13.5090356142        7.2986841513        7.5922020435
 C       -13.4303078248        6.7163986813        6.0746092854
 O       -14.0476757769        7.2059773147        5.1920889192
 C       -12.4028430741        5.5606815011        5.8590365261
 C       -11.9731680222        5.5377952388        4.3150140417
 C       -10.3994359348        5.7478618348        4.0767918140
 O        -9.6857819784        5.0623669696        4.7357313961
 C        -9.8478641459        6.6508775596        2.6503992381
 C        -9.5583497039        5.4008682957        1.8046110288
 O       -10.3442296962        5.0509880622        0.9486486436
 C        -8.2426735412        4.7168025490        2.1646049641
 C        -8.0899203757        3.3565256287        1.5226893260
 C        -7.0615213066        3.4001839243        0.3222722463
 O        -7.4853815223        3.3886557974       -0.8350047420
 C        -5.5188473272        3.1735515017        0.5279425033
 C        -5.3194726295        1.6196281409        0.8557345213
 O        -4.2289459372        1.3847761166        1.3636401305
 C        -6.4619211910        0.5541668019        0.4856948176
 C        -5.9101090098       -0.7017776496       -0.2636102669
 C        -7.0552382381       -1.8680396340       -0.5958571796
 O        -7.9181791627       -2.0025733148        0.1935540472
 C        -6.8516511117       -2.8617448798       -1.8287715222
 C        -7.7300868879       -2.1134657458       -2.9920397568
 O        -7.2428467668       -1.3654248074       -3.7906443208
 C        -9.2752638294       -2.1159802794       -2.8788839482
 C        -9.6970249722       -0.5997181547       -2.9200159936
 C       -10.1396464897       -0.3198043243       -4.4247780598
 O        -9.9322489658       -1.0553466728       -5.3125870351
 C       -10.5581255275        1.2974871231       -4.8129719190
 C        -9.6518324296        2.3281198872       -4.0167871788
 O        -9.7610877830        2.2565514746       -2.7890842088
 C        -8.5736197012        3.3349803213       -4.6549605310
 C        -9.3371163542        4.6991447992       -4.7884983756
 C        -9.4264900448        5.7601329115       -3.7067832151
 O        -8.6598008653        5.8892983484       -2.8150500946
 C       -10.5771113089        6.7855204063       -3.7402183427
 C       -11.8474842964        6.0728229435       -3.0352515932
 O       -11.7167448114        4.9487190333       -2.5697230382
 C       -13.1125693529        6.8512532260       -3.0819377338
 C       -10.0726546905        7.9817602848       -2.8721226181
 C       -10.9145925118        7.1046472767       -5.1165713713
 C       -10.5572337103        1.4915800594       -6.2636723452
 C       -11.9650187853        1.6698722265       -4.2104427462
 C        -5.3391828028       -2.9864921453       -2.4029851498
 C        -7.3951573296       -4.2302955015       -1.3621689506
 C        -4.7365091469        3.5431176498       -0.7045143446
 C        -4.9711759912        4.0109109030        1.6969364854
 C       -10.9442142574        7.5506581783        2.1903436218
 C        -8.4998633480        7.4457035986        3.0072392253
 C       -13.7497480766        8.8579416601        7.5805520170
 C       -12.1562614920        7.1618286981        8.4111258277
 H       -16.6089706898        7.1111018382        8.7448163396
 H       -16.4510741768        5.8329081360        7.7047196933
 H       -16.2951431999        7.4004389915        6.9236176800
 H       -12.6363092680        4.5540599429        6.2438714719
 H       -11.4472641403        5.7639666511        6.4388899070
 H       -12.6204787155        6.0835653118        3.6986401373
 H       -12.1967051931        4.4873956614        4.0465207246
 H        -8.2349840518        4.8108257365        3.2517633391
 H        -7.4116094376        5.2220439278        1.9187190268
 H        -8.9646849149        2.8908831067        1.0862678711
 H        -7.6749273807        2.6071913317        2.1745996325
 H        -7.1550970082        1.0946482080       -0.1766693757
 H        -6.9520818948        0.2463823849        1.4038510621
 H        -5.0554337906       -1.1970488180        0.2844022099
 H        -5.3870410969       -0.4927059942       -1.2216396047
 H        -9.5681163858       -2.5616754462       -1.9561904314
 H        -9.7867244445       -2.6383063003       -3.7193054932
 H        -8.8943582967        0.1929960131       -2.8662532675
 H       -10.4739287608       -0.2013060778       -2.2661690215
 H        -8.1810128947        2.8923262291       -5.5120679835
 H        -7.6963601053        3.4915651269       -4.0557255814
 H       -10.4469868945        4.5580886483       -5.0502576733
 H        -8.8967117710        5.2793594571       -5.6896937352
 H       -13.6575875251        6.6060818663       -2.1334307616
 H       -13.8524506119        6.6608380862       -3.8502396968
 H       -12.8749941129        7.9976408074       -3.1407054002
 H       -10.9205749861        8.6691520561       -2.7816135467
 H        -9.1505039792        8.4451724563       -3.2908335667
 H        -9.8708112275        7.7192536683       -1.8990866378
 H       -11.4605554325        8.0754492480       -5.1638710788
 H       -11.4281093058        6.2937166212       -5.6561890157
 H       -10.1018554829        7.2810678432       -5.7492115718
 H        -9.9947113203        0.6715294191       -6.6199207549
 H       -10.4043296768        2.5182610697       -6.6093692165
 H       -11.6775448090        1.5375544574       -6.6745181486
 H       -12.6813956407        1.0024176673       -4.7067436203
 H       -12.0681849897        2.7294555057       -4.4316612462
 H       -12.0356567702        1.2758947220       -3.1802609795
 H        -4.8874853763       -3.5800064007       -1.4981954029
 H        -4.8234290513       -2.0979625060       -2.5376434042
 H        -5.3262653981       -3.4126840699       -3.3896496387
 H        -7.8041216334       -4.8024831587       -2.2175938502
 H        -8.2296599783       -4.0993015168       -0.6938418666
 H        -6.5682453959       -4.6892929132       -0.7659524403
 H        -3.6685598388        3.8592337190       -0.4917084391
 H        -5.2839438512        4.3668505928       -1.2150658419
 H        -4.5339605960        2.7168520864       -1.3808369224
 H        -4.0718475715        3.6268777343        2.1445703872
 H        -5.6826248264        4.2417867470        2.5325134223
 H        -4.6687057740        5.0784520947        1.3683160765
 H       -11.3236444720        8.1617222663        3.0485208390
 H       -11.8827332121        7.0909150598        1.9681655443
 H       -10.5633270492        8.2526364384        1.4853176936
 H        -8.5647764682        8.5423996878        2.8692192981
 H        -7.6476884408        7.3198329936        2.2273985679
 H        -8.1223743957        7.2147929184        4.0274221583
 H       -14.8327152808        9.0005122910        7.3532950449
 H       -13.1909220656        9.4052456224        6.7614686968
 H       -13.4426569523        9.3953739026        8.4806125716
 H       -12.1777133371        7.5651114656        9.4262236013
 H       -11.1998770532        7.5030723627        7.9958756674
 H       -11.8726129020        6.0774421944        8.6437815218
 Na       -9.6914766714        4.1562145001       -1.4274894025
