117

 C       -15.6411122110        6.4889660265        7.5687641359
 C       -14.1970499516        6.7079968783        8.2206368453
 O       -13.8288598939        6.0340531495        9.1456731284
 C       -13.2077937569        7.6675276433        7.3821090334
 C       -13.1564786952        7.0174062377        6.0080401938
 O       -13.8301386465        7.4301195118        5.0879280756
 C       -12.3202135014        5.7797487500        5.9093237366
 C       -11.8742796821        5.5988396302        4.4291497886
 C       -10.3538955455        5.9184810488        4.0956670042
 O        -9.4324413376        5.7708640717        4.8332517753
 C        -9.9361900258        6.6329978009        2.7694864817
 C        -9.4948650233        5.5157561075        1.7399024305
 O       -10.3061865962        5.0838921477        0.9293130875
 C        -8.1544339103        4.8552723223        1.9607857668
 C        -8.1348932756        3.4020259316        1.5165263035
 C        -7.1433508518        3.2656151581        0.3082298297
 O        -7.5034371309        3.4757977372       -0.8617453685
 C        -5.6013162081        3.0236677565        0.6408284136
 C        -5.3788546795        1.5379411673        0.8260655120
 O        -4.5061820412        1.0194258950        1.5153525550
 C        -6.4800466064        0.5666858463        0.3935197231
 C        -6.0482055065       -0.4826239584       -0.5389566625
 C        -7.1563024312       -1.5509377701       -0.5528324986
 O        -8.1453663957       -1.3583557089        0.1436654639
 C        -7.0274911131       -2.7464532493       -1.6155767926
 C        -7.7783979495       -1.9532564523       -2.8458166265
 O        -7.0965963540       -1.3239711691       -3.5651465573
 C        -9.2689180852       -2.0938657931       -2.8533633683
 C       -10.1975748105       -0.8998233034       -2.9125782535
 C       -10.3794811972       -0.3301513697       -4.4514439791
 O       -10.5522027401       -1.1593512286       -5.2742696385
 C       -10.4815499409        1.2010557860       -4.7149713051
 C        -9.6545598428        2.1088637893       -3.7665830992
 O       -10.0386064892        2.3071454237       -2.6202542742
 C        -8.5668963648        3.0581027928       -4.4401554272
 C        -9.0818100850        4.4526759864       -4.9342244186
 C        -9.3173467741        5.4779467799       -3.7360589023
 O        -8.6449036580        5.4513306572       -2.7558205037
 C       -10.4353762576        6.6071126347       -3.9078989647
 C       -11.7127123729        5.9184944301       -3.1473491347
 O       -11.6438507930        4.9146205528       -2.4910549878
 C       -13.0850682746        6.5606360387       -3.4662628478
 C       -10.0428001749        7.8948741040       -3.1106037491
 C       -10.6337684497        6.9172007209       -5.4040064135
 C       -10.3327582598        1.5771314113       -6.2582627030
 C       -12.0561783384        1.2035582802       -4.3550935176
 C        -5.3832249248       -2.9790273184       -1.9183875557
 C        -7.8131766196       -3.9326227409       -1.0610343154
 C        -4.7679739141        3.3733172539       -0.6430073302
 C        -5.0889712952        3.7388968236        1.8020599641
 C       -11.2669447013        7.2088304201        2.0297262731
 C        -8.7515150566        7.6183171316        3.2337780540
 C       -13.8692638194        9.0355411232        7.2544767857
 C       -11.9702144262        7.7970691667        8.2871942765
 H       -16.5033123272        7.0689668554        7.7926654060
 H       -16.0506124583        5.5492709532        7.7295153102
 H       -15.4494856930        6.5202915084        6.4808358606
 H       -12.8392682423        4.9807357975        6.0977576578
 H       -11.4642788798        5.7739536245        6.5490330920
 H       -12.6484779653        6.2638004695        3.9132016721
 H       -12.0399357540        4.6776656170        3.8512609193
 H        -7.9663379852        4.9541022664        3.0779181888
 H        -7.4358842072        5.6575436543        1.6102579794
 H        -9.1098714635        3.0018132330        1.2422809572
 H        -7.7199928630        2.7907933088        2.3867147656
 H        -7.4713394303        1.0695059522        0.0648038217
 H        -6.6812205118        0.1002631869        1.3393132044
 H        -5.0749970821       -0.8496883273       -0.3778802658
 H        -5.9068897807       -0.0677653997       -1.4425870436
 H        -9.6310117381       -2.6221530176       -1.9312581297
 H        -9.3711294096       -2.8245047335       -3.6494493255
 H       -10.1637977857       -0.0299917943       -2.2942550074
 H       -11.2692205003       -1.1606330553       -2.7398211142
 H        -7.9298591909        2.4896676538       -5.1798073066
 H        -7.8847398022        3.1528320524       -3.6000615964
 H        -9.8903351371        4.4438062024       -5.6398656023
 H        -8.2380961422        4.9771956891       -5.5240242309
 H       -13.7776297431        5.8588866621       -3.8469020456
 H       -12.8827290037        7.2429016272       -4.2150805601
 H       -13.6147612476        7.1706465750       -2.6713321275
 H       -10.9342792660        8.5163661151       -2.8277231672
 H        -9.1390965551        8.4244507262       -3.5267435997
 H        -9.6825028910        7.4736690888       -2.1999509574
 H       -11.2783508086        7.7856081179       -5.7236799540
 H       -10.7764541270        5.9887178931       -5.9502435585
 H        -9.7205513802        7.2444876410       -5.7592696904
 H        -9.3928182502        1.7813847835       -6.5171951863
 H       -11.1346041921        2.3066125579       -6.4913437529
 H       -10.6549912178        0.6985406627       -6.9670413702
 H       -12.4959087427        0.2357843145       -4.7110007437
 H       -12.4653942150        2.0565783002       -4.7523227778
 H       -12.1037001551        1.0842242039       -3.3104752982
 H        -4.7022157015       -2.8249857829       -0.9611880659
 H        -5.2193974670       -2.2636662688       -2.6362893428
 H        -5.1840146799       -3.9142521525       -2.5023598625
 H        -7.9861741902       -4.6506250022       -1.8423666913
 H        -8.7593059493       -3.6669685416       -0.7146288455
 H        -7.1420378188       -4.4375810699       -0.3043804333
 H        -3.7294661519        3.5479783216       -0.4035506179
 H        -5.1093748262        4.3332981858       -0.9314565414
 H        -4.8826548376        2.7163285090       -1.4488789066
 H        -4.0478243266        3.5994375794        1.7841600116
 H        -5.4975777723        3.3478956911        2.6835356340
 H        -5.3302856867        4.7461058541        1.9892827788
 H       -11.9658853123        7.9107386616        2.5841645871
 H       -12.0213031815        6.5375062058        1.6635013142
 H       -10.8498956548        7.7158593959        1.2316276372
 H        -8.7221204480        7.7623497123        4.2618758953
 H        -8.6734310644        8.5326942387        2.6868527133
 H        -7.8371307823        7.1308443078        3.0754684764
 H       -14.4180472429        9.2705131604        6.3770859701
 H       -13.1059297463        9.7694585181        7.4523315914
 H       -14.3901363783        9.1229256705        8.1677697469
 H       -11.9331492396        8.5927331292        9.0176918995
 H       -11.0870294953        8.1879903627        7.8355253469
 H       -11.6279021126        6.9075301864        8.9315049920
 Na       -9.7449184486        4.1090777322       -0.9934022835
