117

 C       -15.0755823069        6.3711500982        8.1158618397
 C       -13.6492037833        6.7515884103        7.9307946715
 O       -12.8949480369        6.1774824691        8.6517878396
 C       -13.2322186936        7.9455305511        7.0005832534
 C       -12.4340326880        7.4223399011        5.7759670535
 O       -12.2498473875        8.2083374267        4.8638543800
 C       -12.1020391421        5.9860830665        5.8153506160
 C       -11.2471178590        5.4690544297        4.5255214457
 C       -10.3152861568        6.5704089733        4.0354216510
 O        -9.3214150548        6.7936379306        4.7525977237
 C       -10.2293694722        6.9970868493        2.4884280756
 C        -9.4422718596        5.8162877613        1.7617941028
 O       -10.1008421676        5.1822613167        0.9194222189
 C        -7.9751036847        5.2674121103        2.1019640052
 C        -7.8528650497        3.7134957313        1.9960390349
 C        -6.9780593882        3.4610014508        0.7705581814
 O        -7.5547799765        3.7255592917       -0.2697520331
 C        -5.5341036051        3.0635480598        0.8648359376
 C        -5.4025880181        1.4156286820        1.1448743531
 O        -4.3878897074        0.9558625191        1.6595910150
 C        -6.7151862396        0.6235206867        0.8221051867
 C        -6.3353208197       -0.7626485303        0.2466177076
 C        -7.5994652710       -1.4948164879       -0.2575475612
 O        -8.7557707145       -1.4110884349        0.2228471365
 C        -7.4742622242       -2.5826546491       -1.3540537068
 C        -8.1510518924       -1.9707652184       -2.6280068381
 O        -7.6229136350       -1.3722316887       -3.5492331044
 C        -9.7263245287       -2.2485337624       -2.8298041145
 C       -10.6669148890       -1.1218038581       -3.0450709086
 C       -10.5412107123       -0.5525219763       -4.5271886784
 O       -10.6250391761       -1.2801767204       -5.4613073175
 C       -10.8929811951        0.9867612791       -4.8054701754
 C       -10.1529523850        1.9506625591       -3.6819614240
 O       -10.7537897565        2.2779575531       -2.6536701485
 C        -8.6723401954        2.2714706391       -4.0654802244
 C        -8.7608564496        3.7329954168       -4.5471194077
 C        -9.0842832729        5.0399181602       -3.6644647358
 O        -8.4704669825        5.2791338891       -2.6498265317
 C       -10.0407584149        6.1322785026       -4.1376145770
 C       -11.4709142174        5.7074644575       -3.4471003014
 O       -11.4635102042        5.3701683548       -2.3058779039
 C       -12.6231062110        5.4157863823       -4.3388258122
 C        -9.7448328038        7.5765927665       -3.5798628624
 C       -10.1052775661        6.1575226966       -5.6720798494
 C       -10.5712978237        1.3344090820       -6.2866870762
 C       -12.4729514857        0.9095378416       -4.4222128866
 C        -5.9602294236       -3.0154769528       -1.5082076727
 C        -8.2209199495       -3.7979972115       -0.8891101438
 C        -4.9021510747        3.3331338632       -0.5716530854
 C        -4.7392419655        3.6410921015        1.9358020836
 C       -11.7493109076        6.9994996950        1.8955511228
 C        -9.5342620877        8.3612499781        2.3030599058
 C       -14.3022174853        9.0782342593        6.7195319759
 C       -12.0392278539        8.5599646972        7.8148298686
 H       -15.5722165534        7.3187018517        8.5403542483
 H       -15.2322298201        5.5791219928        8.8882959740
 H       -15.7176727139        6.1994798344        7.3430198917
 H       -12.9507809324        5.3219274147        5.6409002787
 H       -11.3280490690        5.6088067940        6.7104303744
 H       -11.8854030150        5.1369783810        3.7261574011
 H       -10.5910086322        4.6550188864        4.7657333701
 H        -7.9972863028        5.6565748312        3.0446118891
 H        -7.2084007293        5.7596464331        1.5380380224
 H        -8.8245048473        3.2609761147        1.6441708480
 H        -7.4988513045        3.2114845027        2.8835063588
 H        -7.1430942420        1.2042836183        0.0825050600
 H        -7.5482583051        0.5725417352        1.5246039080
 H        -5.9366384944       -1.3705728852        1.0991742970
 H        -5.4945717340       -0.5470239002       -0.4750258826
 H       -10.1836708528       -2.6644360363       -1.8835322351
 H        -9.8596308744       -3.0768481181       -3.5226436717
 H       -10.7212626823       -0.3523026586       -2.2956083146
 H       -11.7480691558       -1.4950408381       -3.1208815189
 H        -8.7137480056        1.6090567649       -4.9127817352
 H        -7.8994887895        2.0865718249       -3.3703971584
 H        -9.5492629353        3.7556606312       -5.3000491797
 H        -7.7238134941        3.9577875640       -5.1000994323
 H       -13.0335162930        6.2535746257       -4.9383118123
 H       -13.4804878566        4.9360693813       -3.8046904642
 H       -12.1858627632        4.7892615252       -5.0911069316
 H       -10.6549453376        8.1656714681       -3.7706039140
 H        -9.0671982995        8.0452089111       -4.2824723467
 H        -9.2697265004        7.5920417660       -2.5310218128
 H       -10.5827913719        7.0184800474       -6.0618535198
 H       -10.8773462601        5.5103231318       -5.9328361108
 H        -9.1289534438        5.8607498057       -6.1164423507
 H        -9.4864542571        1.3361832292       -6.3982460401
 H       -10.7596683368        2.4741858466       -6.6063068858
 H       -10.8738132596        0.4607651546       -6.8950048104
 H       -12.8554455221        0.0999509288       -5.0391554624
 H       -12.8993961667        1.7781950217       -4.8451913975
 H       -12.5946125193        1.0353385841       -3.4217658685
 H        -5.6272628775       -3.2538841419       -0.5023927225
 H        -5.3237446319       -2.2789732358       -1.8914560415
 H        -5.9226977857       -4.0671315186       -1.9754902224
 H        -8.2858318828       -4.4306978448       -1.7512258336
 H        -9.1863826262       -3.5524340208       -0.3881979664
 H        -7.6630056002       -4.3686704862       -0.1542418001
 H        -3.8867143672        3.4557779673       -0.5145076237
 H        -5.2705778730        4.2876924823       -0.9258896110
 H        -5.2858135003        2.6052913974       -1.2013076579
 H        -3.6624702017        3.5596436776        1.8975896177
 H        -4.9927453327        3.1260092753        2.8204769034
 H        -4.9513718665        4.6397366145        2.0964152724
 H       -12.3382477282        7.4589931342        2.7193994297
 H       -12.1125001902        6.1012774266        1.4980040250
 H       -11.9460056908        7.7177373805        1.1496481057
 H        -8.4665360309        8.2712092086        2.0619115077
 H        -9.8007552624        9.0560235119        3.0444350589
 H       -10.0368688004        8.6690148095        1.3480395892
 H       -15.2781474010        8.6870104392        6.5309149007
 H       -13.9018149833        9.6485482197        5.9221057166
 H       -14.4358435518        9.6217838858        7.6803621101
 H       -12.3530455686        8.9631390809        8.8320349072
 H       -11.5839979136        9.4485644959        7.4697939534
 H       -11.0950989354        8.0080354979        8.0643240945
 Na       -9.6583161971        4.1295028454       -0.9720464821
