117

 C       -10.6937607539        0.4453845312        7.3732841199
 C       -11.6092181314       -0.5411650737        6.5900242519
 O       -12.4068034687       -0.1084952609        5.8204167949
 C       -11.4053077222       -2.1244315896        6.7678269273
 C       -10.4634986651       -2.6152959065        5.5523153769
 O       -10.8220500238       -3.5525237204        4.8858518730
 C        -9.1454875009       -1.9056607671        5.3414207548
 C        -8.8906996927       -1.6684155450        3.8985465286
 C        -7.3977310467       -1.2443835594        3.6972412540
 O        -6.5763994480       -1.7003787097        4.4279095480
 C        -6.8927925776       -0.3783270561        2.5211849177
 C        -7.1225568564        1.1080253929        2.8166659697
 O        -6.9674205505        1.4782676322        3.9803283021
 C        -7.3428995797        2.0578328698        1.6505144969
 C        -6.8758498854        3.5020176184        1.9803412075
 C        -7.8359150765        4.5345326185        1.4804232487
 O        -7.6724701327        4.9300872707        0.3499650546
 C        -9.0703317224        5.0402887414        2.2413717346
 C       -10.2993295852        4.8413021467        1.4065115547
 O       -10.6233872232        5.7468745424        0.6414184233
 C       -11.0744393885        3.4866668312        1.3969460296
 C       -12.0342760371        3.3548928767        0.1636787171
 C       -11.1937065224        2.8702888730       -1.0376878819
 O       -10.2694527240        2.0751571821       -0.7590387315
 C       -11.4816701349        2.8780741462       -2.5631167085
 C       -10.3167420360        3.5676572012       -3.3742431077
 O        -9.4991159854        4.3168684922       -2.8605905360
 C       -10.1298970036        3.2282561557       -4.9012524668
 C        -9.7804365876        4.4812891798       -5.7617179649
 C       -10.9329497565        5.4325198987       -5.9418860042
 O       -11.9801816600        5.2540717732       -5.3241242238
 C       -10.8148374699        6.5513253376       -6.9316183980
 C       -10.5767939609        7.8671150361       -6.0665248671
 O        -9.5787737144        8.5046226975       -6.1991650551
 C       -11.7673143398        8.1525979875       -5.0715792697
 C       -11.5819759100        9.1495203747       -3.8301119103
 C       -10.7416229666        8.4864464562       -2.6777872387
 O       -10.8958587054        7.3522623523       -2.3556274719
 C        -9.6061264047        9.3361072054       -2.0682957758
 C        -8.2315395854        8.6568564770       -2.3450717525
 O        -8.1481528670        7.5038298144       -1.9055326878
 C        -7.0561874667        9.2968954110       -2.9756242286
 C        -9.7488166021       10.9071439375       -2.3017682510
 C        -9.8777355679        9.2503850993       -0.5540605093
 C        -9.7029822713        6.3580169763       -7.9873545384
 C       -12.2022099247        6.6678959936       -7.6582445385
 C       -11.6342570438        1.3592958725       -2.9178701925
 C       -12.8466641350        3.6046679347       -2.9298194517
 C        -9.3032526383        4.3377591917        3.6246460137
 C        -8.6763756902        6.4990961635        2.3883097903
 C        -5.3339673797       -0.5190396058        2.6040309780
 C        -7.3925187671       -0.8167822619        1.1378495610
 C       -10.7760480832       -2.5470328866        8.0571103249
 C       -12.7358646671       -2.8019277578        6.6933299546
 H       -11.2351514838        1.2051113058        7.8700794514
 H        -9.9452599697        0.7607903904        6.6667809830
 H       -10.2138093959       -0.0568785014        8.1308822823
 H        -8.3370326737       -2.5567865691        5.7239679244
 H        -9.2642652530       -0.8250981677        5.7873017065
 H        -9.5767607182       -0.9077774466        3.4503958318
 H        -9.1102030368       -2.6148949616        3.3462089342
 H        -8.4359846901        2.0926337234        1.3508639400
 H        -6.7966192169        1.6519942967        0.7914604037
 H        -5.8671001166        3.6859155777        1.4403590775
 H        -6.5888566818        3.6590557517        3.0392118044
 H       -11.6991043234        3.3991273961        2.3120384428
 H       -10.4352201952        2.5826274443        1.1356853294
 H       -12.6194692615        4.2897294955       -0.0156181538
 H       -12.8190085088        2.5014379565        0.2768354861
 H       -11.0613658633        2.9293078326       -5.3150495930
 H        -9.4924185287        2.4139839311       -4.9087298330
 H        -9.4896412274        4.1594943069       -6.7254180504
 H        -8.8980995180        5.0090204258       -5.5225135902
 H       -12.2508642854        7.3057998070       -4.6888785927
 H       -12.4870312037        8.6219277786       -5.7200869149
 H       -12.5492712513        9.5191212488       -3.4777475953
 H       -11.0641521553        9.9974955369       -4.1661938677
 H        -6.8606434373       10.3340934256       -2.6683752232
 H        -7.2336338471        9.3049802418       -4.0799274437
 H        -6.0913874770        8.7222097773       -2.8070905694
 H       -10.7407515004       11.2336672045       -2.0328834958
 H        -9.6537149490       11.1955772748       -3.4010379775
 H        -9.0565273319       11.3726875336       -1.7171229772
 H        -9.5483342418        8.2803683882       -0.1884094149
 H       -10.9713390860        9.2176619001       -0.3749602841
 H        -9.4237273617       10.0409482126        0.0864526390
 H        -9.9745441233        5.6044095129       -8.7673522169
 H        -8.7873238065        6.3192675889       -7.3833883159
 H        -9.6041996954        7.2855162288       -8.5124701992
 H       -12.2269510367        6.2521214999       -8.6536526896
 H       -12.4136459493        7.6953998656       -7.7353873720
 H       -13.0019739295        6.2841559570       -7.0536954170
 H       -12.6936339497        1.0863184128       -2.9368859614
 H       -11.0864200060        0.5941328377       -2.3054838040
 H       -11.2907519659        1.1304725370       -3.9473392770
 H       -12.7009626380        4.6933984753       -2.5231275571
 H       -13.7194800753        3.0151178376       -2.4683280885
 H       -12.9227918721        3.6050194118       -4.0051745470
 H        -9.4293617855        3.2614530255        3.3264740919
 H       -10.0897682299        4.8359251056        4.1927042516
 H        -8.3749059665        4.3566512180        4.0642836585
 H        -8.8623023855        6.8668718212        1.3811029439
 H        -7.6741453655        6.6849215504        2.7615088666
 H        -9.3276613112        6.9990641321        3.1315292864
 H        -5.1769588769       -1.5017873286        2.2593802334
 H        -5.0271031901       -0.5251119762        3.6334734629
 H        -4.8080520713        0.2586880081        2.0518169015
 H        -8.4535977026       -0.7665143258        0.8584763322
 H        -7.1671508060       -1.8441803282        1.0881445894
 H        -6.9192102228       -0.4016088753        0.2529420243
 H        -9.6840387161       -2.4892585014        8.1465752716
 H       -10.8839192857       -3.6471453944        8.1854901475
 H       -11.2113089817       -2.1409994164        8.9133862653
 H       -13.3764332039       -2.4928929748        5.8941367260
 H       -13.3192852056       -2.6708313241        7.5525925063
 H       -12.4861397278       -3.7980871760        6.4536191839
 Na       -9.2782739613        5.9239109831       -1.0888151649
