117

 C       -14.8617991264        6.7709331259        8.4456039552
 C       -13.4350369595        6.8849607594        8.0145611542
 O       -12.5568669967        6.1925388668        8.4564003146
 C       -12.9990808313        8.0542027236        6.9347499898
 C       -12.0457347200        7.4972751140        5.9110273164
 O       -11.8495604812        8.1943305372        4.9462636332
 C       -11.7485213138        6.0205486971        5.8515429991
 C       -11.0825176619        5.5511454321        4.5461072460
 C       -10.2269032984        6.7552252833        3.8824178605
 O        -9.3714549219        7.2379884933        4.6534681649
 C       -10.2631076668        7.0148021298        2.2673510747
 C        -9.5772334674        5.7256935732        1.7292332978
 O       -10.1490651966        4.9174145450        1.0049775408
 C        -8.0897182269        5.7141989518        2.0175961999
 C        -7.5026132761        4.3043185223        2.2260968508
 C        -6.9990941651        3.5722823004        0.8631932843
 O        -7.8830001067        3.2553292918        0.0532931216
 C        -5.5146743496        3.0666075067        0.9409453335
 C        -5.6359154849        1.4500113346        1.1883992923
 O        -4.6746921404        0.9022064307        1.6951195079
 C        -6.7800162706        0.6592854763        0.5412357081
 C        -6.5412594204       -0.8466168254        0.6459289704
 C        -7.8160669532       -1.5934487562        0.0445319833
 O        -8.9616776475       -1.2769223588        0.3762239412
 C        -7.6969055182       -2.6288806621       -1.1494151210
 C        -8.6357243221       -2.0238741448       -2.2462001858
 O        -8.0231687446       -1.2733172343       -3.0033723222
 C        -9.9570099098       -2.4819989335       -2.6359683934
 C       -10.8075221208       -1.1671842195       -2.9773995139
 C       -10.5544801701       -0.5846095861       -4.3543711911
 O       -10.3665758778       -1.2806487281       -5.2779876463
 C       -11.0132041731        1.0690599107       -4.6347309808
 C       -10.2112550661        2.0955590204       -3.7878062799
 O       -10.8593064672        2.6296131466       -2.8416467686
 C        -8.7317573628        2.2648053098       -3.9850719752
 C        -8.3256139958        3.6003921916       -4.8257001551
 C        -8.7304106613        4.8420250869       -3.9200154071
 O        -8.3433049006        5.0675869418       -2.8236241331
 C        -9.9353227354        5.8816356740       -4.3638066854
 C       -11.2768393245        5.3779102462       -3.7980659304
 O       -11.2863189435        5.2758881568       -2.5735646247
 C       -12.5228763207        5.0883134454       -4.5423152441
 C        -9.5322081317        7.1929400619       -3.5498306207
 C        -9.9867090920        6.0541905416       -5.9591220582
 C       -10.9438461446        1.3077698180       -6.2904993540
 C       -12.4789248252        0.9728164488       -4.1517234439
 C        -6.3711084833       -2.7926006029       -1.7934930763
 C        -8.0650154109       -4.0466810088       -0.5662680308
 C        -4.7435698941        3.1428525244       -0.3273020027
 C        -4.7110772596        3.6581734744        2.1433166815
 C       -11.7254417867        7.1068215458        1.7120672926
 C        -9.5879491304        8.3812343148        1.7244201449
 C       -14.2691965573        8.7569856898        6.2367413951
 C       -12.2504425694        9.1813147873        7.6777309510
 H       -15.2533052394        7.3963371673        9.2371133626
 H       -15.0430022998        5.7103673395        8.7026697274
 H       -15.5447579282        7.0328418194        7.7722732204
 H       -12.6978991754        5.4748475669        5.7775339988
 H       -11.0265627442        5.5976146080        6.7103431916
 H       -11.7775603576        5.0903299412        3.8903107760
 H       -10.1412252069        4.8809459255        4.6392321950
 H        -8.0438411212        6.3108248692        2.9308931851
 H        -7.7524956214        6.3568285554        1.1678787612
 H        -8.2844431343        3.6077738996        2.6595976140
 H        -6.7084461406        4.4233354795        2.9419080693
 H        -6.8273734249        0.9838441787       -0.4911286203
 H        -7.8415711266        0.9376915228        0.9266254843
 H        -6.5023831246       -1.0915021084        1.6242979820
 H        -5.6164350498       -0.9690288235        0.1819103626
 H       -10.5602248995       -2.9371506176       -1.8681016914
 H       -10.0097268862       -3.2473924887       -3.4615571155
 H       -10.6330701586       -0.3349374822       -2.2609564702
 H       -11.8742038907       -1.4339168690       -3.0438620850
 H        -8.3481380660        1.4970273857       -4.6349125994
 H        -8.3532108407        2.3239745048       -2.9400873990
 H        -8.7944273153        3.4413412966       -5.8131377669
 H        -7.1820629577        3.5071993673       -4.9681773167
 H       -12.9564611532        6.0825865635       -4.7113252638
 H       -13.2365463904        4.4949142331       -3.9319846518
 H       -12.3933836655        4.6634342320       -5.4857195989
 H       -10.2409811587        7.9216770806       -3.8147328913
 H        -8.6286282437        7.5656980146       -3.9003614981
 H        -9.5713243221        6.9026145357       -2.4542968734
 H       -10.9346538674        5.9112367786       -6.3655112006
 H        -9.3713623535        5.2414907020       -6.3998965440
 H        -9.3744858251        6.9709736987       -6.2115298857
 H       -10.3616964132        2.1248973905       -6.6437466828
 H       -11.9438150042        1.8008194588       -6.6309771416
 H       -10.8500035780        0.3814360226       -6.7294429461
 H       -12.9308242979        0.2961450567       -4.8812677626
 H       -13.0982514056        1.9154704567       -4.1521265169
 H       -12.3475672232        0.6945956755       -3.1051969830
 H        -5.5742857157       -3.2857531129       -1.2165067442
 H        -5.9429339109       -1.8541218628       -2.1436514103
 H        -6.6707498903       -3.4159399221       -2.7482740530
 H        -8.2826248940       -4.7677436377       -1.3703823185
 H        -8.9303967463       -3.8855072422        0.1291579798
 H        -7.3620465629       -4.4096791013        0.0879144711
 H        -4.2887751949        4.1557520588       -0.4367062764
 H        -5.5427745653        2.9273031900       -1.1194669970
 H        -3.9327689190        2.3160402532       -0.3635298587
 H        -3.6693880264        3.1756091804        2.1009136593
 H        -4.9294840661        3.3360486821        3.1723755063
 H        -4.4407100079        4.6975433149        1.9779757991
 H       -12.3241887800        7.9707953276        2.0160429138
 H       -12.1641271249        6.1030631549        1.9105542130
 H       -11.7122368852        7.2057249325        0.5617610718
 H        -9.5398536790        8.3343281560        0.6323817810
 H        -8.6489792978        8.5506955943        2.1472488434
 H       -10.2942384999        9.1974231890        1.9788509367
 H       -14.8696459501        8.1746723623        5.5283831511
 H       -13.9395325234        9.6737323342        5.8136974175
 H       -14.9035380850        8.8681970015        7.1237102463
 H       -12.8539377472        9.8843764429        8.2688989146
 H       -11.7433689904        9.7589498071        6.9367790892
 H       -11.3825928853        9.1118316323        8.3229166317
 Na       -9.9172749258        3.9457051410       -1.1605546565
