117

 C       -14.6498229249        7.2407647800        8.7721847410
 C       -13.2870919536        7.0728899695        8.0202665577
 O       -12.2693266414        6.5055357597        8.3818704319
 C       -13.0685018879        8.0193392202        6.8738819637
 C       -12.0202925102        7.6287312169        5.6812283369
 O       -11.8326487839        8.3192939658        4.6987738298
 C       -11.1025500188        6.3080524072        5.9101397244
 C       -10.8871404426        5.7500525887        4.4630720087
 C       -10.0144101534        6.8539534867        3.5704958952
 O        -8.9866794613        7.2687983593        4.0728572848
 C       -10.3391631416        7.1709799828        2.0611015194
 C        -9.6666618342        5.8753501836        1.3611729447
 O       -10.3212110381        4.9586210929        0.9027550629
 C        -8.1596467263        5.7726010953        1.5410402738
 C        -7.5121957621        4.5456961440        2.2971472867
 C        -6.9831318208        3.5295654901        1.1693132430
 O        -7.6881664723        3.2650086314        0.0978439866
 C        -5.5365994722        3.0264523139        1.0471487652
 C        -5.7165959181        1.2672265388        1.2324496591
 O        -5.0831133006        0.6534091909        2.0518146018
 C        -6.6839566967        0.5094502745        0.3243596706
 C        -6.7590717741       -1.0000827056        0.7797582879
 C        -8.0357360471       -1.6817178746        0.1195157463
 O        -9.1608748399       -1.4594424184        0.5212573001
 C        -7.7742717234       -2.6489006204       -1.0346222675
 C        -8.7840530833       -1.7631796385       -2.1535019442
 O        -8.3482817261       -0.6108812160       -2.4454681053
 C       -10.1439200876       -2.2958951012       -2.2953845621
 C       -11.1656178107       -1.2147385768       -2.7815584666
 C       -10.6508576921       -0.4986847892       -4.0105725581
 O        -9.7132556647       -0.8573306889       -4.6580630738
 C       -11.2373602981        0.9391469329       -4.5385546116
 C       -10.3278885589        1.8426836916       -3.7622544524
 O       -10.5509602722        2.3750325888       -2.6895255616
 C        -8.9104364975        1.9563770549       -4.1057331583
 C        -8.6435716256        3.2075206684       -4.8607445976
 C        -8.8069114017        4.4919778832       -4.0120631962
 O        -8.2640961096        4.3919936050       -2.9113007823
 C        -9.5954564732        5.6444898088       -4.4845043712
 C       -11.1424719855        5.2470335120       -3.9584351410
 O       -11.3467073437        5.2149307274       -2.7593819249
 C       -12.2374813283        4.9525268869       -4.9709468157
 C        -9.3549845646        7.0498248548       -3.7080288518
 C        -9.7000825282        5.7161191937       -6.0619726541
 C       -11.2533879853        1.0713596269       -6.0973836255
 C       -12.7210493052        1.3629212391       -4.0955610729
 C        -6.3957577320       -2.7705541192       -1.5922009567
 C        -8.3711913449       -4.0623367262       -0.8185438388
 C        -5.1575942625        3.3100284208       -0.4532222816
 C        -4.5018501125        3.4745187505        2.0792313109
 C       -11.8743183927        7.1491433180        1.7694713508
 C        -9.8588773784        8.6258783341        1.7631304091
 C       -14.3612717861        8.4316548229        6.1608336393
 C       -12.4424944862        9.3797412361        7.5432318942
 H       -15.1130488447        8.2376959924        8.9009774255
 H       -14.9134122344        6.6234138692        9.7205232943
 H       -15.3777617442        6.8632149101        8.1029070765
 H       -11.5909100949        5.5709081549        6.4414123747
 H       -10.1166436657        6.4959548133        6.3262764905
 H       -11.7678703387        5.6529738698        3.9485379522
 H       -10.3389728044        4.7460140210        4.5424270390
 H        -7.8213301072        6.7760253736        2.0013843524
 H        -7.8455227602        5.6824584236        0.4840733778
 H        -8.0465938141        4.0714585373        3.0806400872
 H        -6.7261485581        5.1141665203        2.7393293354
 H        -6.4900804944        0.6099655010       -0.7877101439
 H        -7.7227545063        0.8125943055        0.6121732624
 H        -6.8650273880       -0.9704734462        1.9030503461
 H        -5.8094245908       -1.5117959969        0.4192971515
 H       -10.6802876032       -2.7373439579       -1.5246116402
 H       -10.1786627227       -3.0339748950       -3.1531427229
 H       -11.1711545988       -0.5120106544       -1.8643094839
 H       -12.1211076973       -1.5116673543       -3.1625854174
 H        -8.6037489925        1.1124681457       -4.7043127896
 H        -8.2107344255        2.1048914641       -3.2171593516
 H        -9.2574611556        3.1617465208       -5.7155159246
 H        -7.6809251815        3.1588701058       -5.2195277967
 H       -12.2403826268        5.7761469920       -5.7602664828
 H       -13.2609334582        4.9630155403       -4.4152024571
 H       -12.1904425494        3.9715343052       -5.3769503623
 H       -10.1590104868        7.7203002381       -3.9880715398
 H        -8.4054926020        7.5004503199       -4.0031680120
 H        -9.4582628372        6.7879692176       -2.6060971481
 H       -10.1361980822        4.8346272726       -6.4145487932
 H        -8.7110522408        5.9968562451       -6.5039594595
 H       -10.5172514562        6.4879628519       -6.2652862632
 H       -10.2264438814        1.2183096275       -6.4925124190
 H       -11.7132719163        2.0575986452       -6.3472280001
 H       -11.7651347619        0.3328287006       -6.5373744933
 H       -13.4545881615        0.9090248196       -4.7170694886
 H       -12.6853420225        2.4414817278       -4.3178211441
 H       -12.8901232967        1.1105444314       -3.0391195618
 H        -5.7483307891       -3.0529259653       -0.8457333710
 H        -5.8908922818       -1.9339310393       -2.0967290304
 H        -6.3160696208       -3.6249313140       -2.3430579939
 H        -8.1867346708       -4.8235918147       -1.6372409172
 H        -9.4734287380       -3.9460461383       -0.6822220309
 H        -7.9824442556       -4.4302557047        0.1172311993
 H        -5.9233121611        3.8753717584       -0.8913870455
 H        -5.2229041027        2.3521944116       -0.9189718082
 H        -4.3739191900        4.0320491480       -0.5438744063
 H        -3.5378417232        2.9628908510        1.8947489303
 H        -4.8588841926        3.1278693909        3.0453635151
 H        -4.2069130293        4.4929284005        2.1106975067
 H       -12.3116251081        8.0958919068        1.8147606943
 H       -12.3591912937        6.5391570167        2.5326551466
 H       -11.9909328359        6.7361186653        0.7413878941
 H       -10.6882277713        9.3344675534        1.4361952745
 H        -9.0086759844        8.6388972410        1.1018227968
 H        -9.7528669221        8.9913073514        2.8134757297
 H       -14.8976582747        7.4550071283        5.9985791539
 H       -13.9755863266        8.8039288531        5.2081219238
 H       -14.9568303288        9.2071852530        6.6599450430
 H       -13.0190718207        9.8471297530        8.3067206138
 H       -12.1474729683       10.1797409979        6.8390202582
 H       -11.5012776019        9.3168520730        7.9758100020
 Na       -9.4256564662        3.9439225637       -1.0041997355
