117

 C       -13.9410588767        7.8216953581        9.1212919360
 C       -12.9102222040        7.5303770097        8.1115119760
 O       -11.9469923227        6.8307258834        8.3769705087
 C       -12.9911708697        8.2964595772        6.7861037620
 C       -11.9777194793        7.8673137676        5.5621776880
 O       -12.1442018225        8.3144799104        4.4388862184
 C       -10.7276178245        6.9668455675        5.7180859642
 C       -10.2400583159        6.1049817694        4.6259718069
 C        -9.5781698854        6.8213554105        3.4475680442
 O        -8.4813077643        7.3356822379        3.6634988537
 C       -10.2717833601        7.0096811437        2.0151296029
 C        -9.6054407424        6.2173194097        0.8264325044
 O       -10.3676287606        5.5126565437        0.1964000741
 C        -8.1527605293        6.0140559651        0.5022166538
 C        -7.5629650710        4.8987709503        1.4287738337
 C        -7.2791417947        3.5839717726        0.7688295847
 O        -7.9071850645        3.1058273975       -0.1709009117
 C        -5.7970805004        2.7393954915        1.0858834384
 C        -6.1572566741        1.3250014157        1.6799955659
 O        -5.8014894720        0.8931195335        2.7416551013
 C        -6.7447149710        0.2746069614        0.7146538863
 C        -6.8966068623       -1.0876795495        1.4131265031
 C        -8.0289496192       -1.8833769238        0.6771123932
 O        -8.9017096787       -2.2650267673        1.4369457060
 C        -8.0895049093       -2.4172232406       -0.8703062823
 C        -9.2641183428       -1.6681904767       -1.5674535899
 O        -8.9994424793       -0.5628991105       -1.9160575346
 C       -10.6159409474       -2.3106239462       -1.8858808584
 C       -11.6281847108       -1.1359785145       -2.5616661147
 C       -11.1229790979       -0.7154486139       -3.9400178801
 O       -10.5464298002       -1.4556651235       -4.7185793032
 C       -11.4122343826        0.8076426934       -4.2143804086
 C       -10.1924580568        1.6476337844       -3.5996487663
 O       -10.2915942994        2.0162493963       -2.4265174208
 C        -8.8562699087        1.7214908310       -4.1920361502
 C        -8.4965871886        2.9783903776       -5.0212954562
 C        -8.4285030719        4.2516126879       -4.1687251431
 O        -7.8340929984        4.3111461965       -3.1507400265
 C        -9.2707907806        5.4030860345       -4.6402367885
 C       -10.7595588589        5.1184052650       -4.1818759669
 O       -11.1765999528        4.9439978647       -3.0448010113
 C       -11.7695820302        5.3895493328       -5.2474942185
 C        -8.8690409724        6.7447129890       -3.8959074644
 C        -9.1902951173        5.6041815083       -6.2442832623
 C       -11.4534323949        1.1608694185       -5.7651944184
 C       -12.6837436627        1.3457266611       -3.4980943611
 C        -6.6966562621       -2.2273952203       -1.5538598586
 C        -8.2090769240       -4.0039309188       -0.7070949984
 C        -5.1110113161        2.8195334512       -0.4156231044
 C        -4.8611196716        3.4169360008        2.1813112150
 C       -11.7588932743        6.7098533310        1.9152775981
 C       -10.0279427079        8.5705434352        1.5625135853
 C       -14.4104608606        8.2541648754        6.2037489708
 C       -12.8224664017        9.7481475000        7.0656152195
 H       -14.2974942115        8.8748669827        9.0111676872
 H       -13.6444296494        7.6684938725       10.1552851318
 H       -14.9503910258        7.2831909776        9.1141317145
 H       -10.9740579681        6.5000998919        6.7917934053
 H        -9.9458525638        7.7048967145        6.0660714135
 H       -11.0787885938        5.5278596402        4.0947082939
 H        -9.5696319354        5.3445809004        5.0469596866
 H        -7.6660348689        6.9879815339        0.5389723846
 H        -8.0412035560        5.5135649994       -0.5542140244
 H        -8.1436409938        4.8023318865        2.3216797597
 H        -6.5931532195        5.1911427533        1.7550822938
 H        -6.1104160147       -0.0165648673       -0.1487882840
 H        -7.8502852121        0.5671438148        0.4438319588
 H        -7.1407630185       -0.9367222222        2.4676278182
 H        -5.9120537735       -1.6049971334        1.5042273945
 H       -11.0630486534       -2.6576796772       -0.8889103462
 H       -10.8630768531       -3.1197702280       -2.5460001634
 H       -11.4911142832       -0.2331087408       -1.9703321803
 H       -12.6766441121       -1.5166015658       -2.6230511195
 H        -8.5852690606        0.9212498519       -4.9041473634
 H        -8.1036065992        1.6960483664       -3.4299740615
 H        -9.1732354653        2.9222892778       -5.8342453659
 H        -7.5465868035        2.7250544757       -5.4505136565
 H       -11.6711914000        6.4919135951       -5.2468506452
 H       -12.7057049413        5.0886785850       -4.8099133331
 H       -11.7043459658        4.8173635967       -6.2539480459
 H        -9.4119313830        7.5306440357       -4.4546488535
 H        -7.7770504899        6.7651326484       -3.8347013800
 H        -9.2280995094        6.7109720910       -2.8674914775
 H        -8.2403575067        6.2296908531       -6.4125302964
 H        -9.9925675026        6.1897977467       -6.6561163149
 H        -8.8922056926        4.7014135226       -6.7806424437
 H       -10.5544845072        1.1801716685       -6.2603766591
 H       -11.9932119990        2.0372101940       -5.8150904762
 H       -12.0340551333        0.5345343521       -6.4679981694
 H       -13.6380303739        0.7784990606       -3.7217938508
 H       -12.6380077442        2.3859612473       -3.7800528973
 H       -12.6099878545        1.3399756860       -2.4545591399
 H        -5.7768113471       -2.4687956038       -0.9583915947
 H        -6.6228861817       -1.1879051407       -2.0402176790
 H        -6.4599965734       -2.8226859912       -2.3685491186
 H        -7.8604993717       -4.5427412352       -1.5762838154
 H        -9.2154566801       -4.3810133207       -0.5130400846
 H        -7.5246103477       -4.2137869990        0.1492432724
 H        -5.2507706078        1.8061671401       -0.8257684193
 H        -4.0408225986        3.0023379970       -0.2960677336
 H        -5.6116149876        3.5902140936       -0.9623606468
 H        -4.0616804529        2.7117760845        2.2360816214
 H        -5.2983921467        3.7217961538        3.0990329001
 H        -4.5579931987        4.4510425365        1.8917849239
 H       -12.3845560605        7.4041942723        2.5550886955
 H       -11.9677811523        5.7191670603        2.2317046198
 H       -11.9061734744        6.6932621123        0.8827715303
 H       -10.0203558372        9.0998511376        2.5247628240
 H       -10.9012937601        9.0308173275        1.0316332431
 H        -9.0141767865        8.6954243506        1.0755508446
 H       -14.6617798351        7.2193382750        6.1181318487
 H       -14.3141486492        8.7150293417        5.2344645074
 H       -15.0582412528        8.8648916560        6.8505041312
 H       -13.6324272441       10.2002962987        7.5596446206
 H       -12.9531624032       10.3171769478        6.1742895153
 H       -11.9763109494       10.2415386618        7.5344922354
 Na       -9.5728674545        3.8557032921       -1.4230288421
