117

 C       -10.7155485902        0.4377284680        7.5738447186
 C       -11.5697793118       -0.5897737776        6.6914033609
 O       -12.2792468401       -0.1583752339        5.7973355901
 C       -11.3622811639       -2.0962854790        6.9553835696
 C       -10.3790416142       -2.5415978100        5.6811991383
 O       -10.7361440973       -3.4485288815        4.9638834375
 C        -9.0597014195       -1.9047404168        5.4637308466
 C        -8.8236862117       -1.6633841760        3.9803511773
 C        -7.3617552486       -1.3775249019        3.6974544988
 O        -6.5959392779       -1.6725404456        4.5798480888
 C        -6.8323412006       -0.5256898864        2.4479968355
 C        -7.1343673595        1.1487588833        2.7930076462
 O        -7.0805146394        1.5196102913        3.9446116721
 C        -7.2704913233        2.1707554729        1.6478413370
 C        -6.7692400581        3.5488801826        2.1216714924
 C        -7.7377379716        4.5531674911        1.4435378834
 O        -7.6062212721        5.0174978308        0.3307613612
 C        -8.9923219979        5.0606347605        2.2870455839
 C       -10.3352707297        4.8103786282        1.3014518135
 O       -10.7106152699        5.7235552902        0.6561131239
 C       -11.1541978438        3.6078118095        1.4998591560
 C       -11.9241447389        3.3556857473        0.1702006943
 C       -11.1710815236        2.7255418330       -1.0051389899
 O       -10.2095377406        2.0732868373       -0.7321551990
 C       -11.5200834058        2.8843554521       -2.6170199702
 C       -10.4015510811        3.5481043590       -3.4523319421
 O        -9.5979180985        4.3489663872       -2.9215678229
 C       -10.2787073047        3.2826796144       -4.9252325030
 C        -9.7602436067        4.4798298043       -5.5685768683
 C       -10.9864586602        5.3600162373       -5.9294764725
 O       -11.9533811082        5.1892489592       -5.2299992441
 C       -10.8703506383        6.5194154426       -7.0069124137
 C       -10.6150951488        7.8160139384       -6.1636169595
 O        -9.5836809871        8.4473908958       -6.3510756505
 C       -11.7460430124        8.2121697968       -5.3165858254
 C       -11.5236437363        8.9749243970       -4.0481703049
 C       -10.6972071662        8.4569905856       -2.8877476194
 O       -10.9877050689        7.4026906426       -2.3844670293
 C        -9.6552484392        9.3811959289       -1.9932692727
 C        -8.2451646708        8.6725369938       -2.3652363208
 O        -8.1093263095        7.5013987499       -2.1654993892
 C        -7.1666100285        9.3700928077       -3.0646661288
 C        -9.7641627142       10.9110838126       -2.2538470745
 C        -9.8440534231        9.1822831569       -0.4284899222
 C        -9.7294762426        6.1328906985       -8.0493192549
 C       -12.2726366901        6.7100635310       -7.8072960519
 C       -11.7804430796        1.4333263524       -3.1280657958
 C       -12.8756501010        3.7179763375       -2.9933983707
 C        -9.3783613870        4.3574539305        3.7396935386
 C        -8.7978912687        6.5821177572        2.6812702688
 C        -5.2703958309       -0.6111466709        2.4263740096
 C        -7.2879016727       -0.8858690005        1.0152147884
 C       -10.5875201490       -2.4645074154        8.2352477488
 C       -12.7096965504       -2.7782590395        6.8868788130
 H       -11.4034978047        1.0434533200        8.0588176410
 H        -9.9303624270        0.9800392463        7.0042390895
 H       -10.2567387278       -0.0979096484        8.3841461248
 H        -8.3615494383       -2.7352951017        5.7564953728
 H        -8.9959346524       -0.9360443594        6.0294042990
 H        -9.4548874330       -0.8131975383        3.5016401952
 H        -9.2009569353       -2.5889681073        3.4404560993
 H        -8.3723772508        2.2551290206        1.3759751559
 H        -6.7239103813        1.8432441271        0.7366253089
 H        -5.7077576692        3.6271128123        1.8925355932
 H        -6.8009057290        3.7481412183        3.2304968386
 H       -11.9770033344        3.9703653890        2.2527827192
 H       -10.6613296914        2.6609479767        1.7144991105
 H       -12.4677810568        4.2393300340       -0.1278412057
 H       -12.7226498024        2.5626388281        0.4097909733
 H       -11.2137576181        3.0411195875       -5.3497185133
 H        -9.6921986873        2.3501758068       -4.9439966398
 H        -8.9848178170        4.2787158298       -6.2750468971
 H        -9.1376430960        5.0282954246       -4.8817672971
 H       -12.2600729341        7.2974785149       -4.9222072992
 H       -12.5070589719        8.7037014072       -5.9336112476
 H       -12.4683681914        9.0387218341       -3.5415383859
 H       -11.2803560155        9.9980209278       -4.2101271053
 H        -7.0635166249       10.4014268491       -2.6667999506
 H        -7.5469105508        9.5355399273       -4.1579963882
 H        -6.1388117728        8.9307406225       -3.0964815998
 H       -10.8294385782       11.1930706022       -2.0042677990
 H        -9.6555962662       11.1998046901       -3.2595726847
 H        -9.0276653714       11.4457984527       -1.5977334635
 H        -9.9313660741        8.0490103746       -0.2328250764
 H       -10.8159121711        9.5886631606       -0.1187812080
 H        -9.1358508893        9.5994167835        0.1618712527
 H        -9.9517278218        5.0859988222       -8.4628647017
 H        -8.8848662534        6.2947536739       -7.4454038085
 H        -9.6677741980        6.7862472208       -8.9395129300
 H       -12.2895405405        6.1195019623       -8.6828730661
 H       -12.3386298480        7.7273950581       -8.1626981924
 H       -13.1623712881        6.4923208902       -7.2009722750
 H       -12.8143285402        1.0763406952       -2.9484309761
 H       -11.0715048911        0.6479374411       -2.7338361009
 H       -11.6174950980        1.3471931773       -4.2211088945
 H       -12.6517135925        4.7325495106       -2.7707226934
 H       -13.7297969331        3.2706616457       -2.4683989960
 H       -13.0276628950        3.6151050109       -4.0910302790
 H        -9.3688741206        3.2627067500        3.5735046902
 H       -10.2727865185        4.8003104921        4.0139011452
 H        -8.5471050109        4.5890741514        4.4583743179
 H        -8.7488126903        7.0873207572        1.7664281344
 H        -7.8949336963        6.7342180161        3.3036997037
 H        -9.5960570988        6.9614009202        3.3061068599
 H        -4.9819050186       -1.6619156993        2.3456169928
 H        -4.8784019311       -0.2729687900        3.3440935362
 H        -4.9339266943        0.0272033055        1.6541437720
 H        -8.3043190674       -1.0485141577        0.7851602017
 H        -6.8851288789       -1.8700923399        0.8462105922
 H        -6.9556668566       -0.2987307527        0.2182399357
 H        -9.4957563645       -2.4139358958        8.3102422118
 H       -10.6765073889       -3.5320673493        8.4622637154
 H       -10.9758657235       -1.9326089210        9.0936492932
 H       -13.3724775585       -2.4950789515        6.0707209539
 H       -13.2942305226       -2.6000232289        7.7576187972
 H       -12.5319200612       -3.8436191912        6.7112404823
 Na       -9.3461420930        5.8727053425       -1.2040564537
