117

 C       -13.1589110785        8.2083189139        9.2173468670
 C       -12.2494223635        8.0128685430        7.9348028531
 O       -11.3210045618        7.2871679076        8.1912848180
 C       -12.6955216984        8.5612807817        6.5487487896
 C       -11.7536265160        8.1652609613        5.3788276263
 O       -12.1516040031        8.3773043361        4.2537804574
 C       -10.3792137771        7.4297003821        5.5261379099
 C       -10.3198865163        6.4073097632        4.3982294668
 C        -9.6423555444        6.9146201757        3.1572665307
 O        -8.5120306982        7.2424663793        3.2038596644
 C       -10.4112647062        6.9217986948        1.6319148077
 C        -9.5828889935        5.9175650400        0.5906850721
 O       -10.3524502769        5.1364879452        0.0287096194
 C        -8.1171337633        5.9633432904        0.3964068386
 C        -7.4368935010        4.9847236494        1.3644819535
 C        -7.0450658269        3.7572979519        0.5671206815
 O        -7.5707652242        3.3149030024       -0.4273774392
 C        -5.9400497315        2.7519463792        1.2180101290
 C        -6.7500020741        1.5815710985        1.9404393522
 O        -6.7712967460        1.5096680482        3.1664210431
 C        -7.6588601638        0.6367265739        1.0651960372
 C        -7.4358003696       -0.8201265991        1.5660336350
 C        -8.0849822749       -2.0077846308        0.9501271486
 O        -8.7185080691       -2.7486443938        1.6596427505
 C        -8.1586664155       -2.3688203591       -0.5667017857
 C        -9.2049260457       -1.4921096588       -1.2337694001
 O        -8.9148020355       -0.2744453648       -1.2971489825
 C       -10.5696913152       -2.2085983739       -1.4538593922
 C       -11.7160732907       -1.3201505335       -1.9586251143
 C       -11.6172867940       -1.0616309682       -3.4122950066
 O       -12.1992995156       -1.6403955601       -4.2550382679
 C       -11.2615785187        0.5113171064       -3.9471871188
 C       -10.2767506079        1.3990183605       -3.3133555171
 O       -10.5412757652        2.0509471627       -2.3076813985
 C        -8.8674734669        1.5626322092       -3.9857116256
 C        -8.7177629726        2.7218367662       -5.0137580143
 C        -8.3335653886        4.0023552459       -4.2763983331
 O        -7.4894080708        3.9172341903       -3.3438005591
 C        -8.8928505619        5.3913656643       -4.8056148948
 C       -10.4458925734        5.3097846870       -4.6088713703
 O       -11.0017223335        4.5559253609       -3.7984490097
 C       -11.4326839429        6.0400972793       -5.6223276452
 C        -8.3025404962        6.6417495307       -3.9641865507
 C        -8.5802283961        5.6027605343       -6.2931205662
 C       -11.2529908906        0.3246387428       -5.5001616508
 C       -12.7634548703        1.0650274002       -3.6067412293
 C        -6.7783803869       -2.1428041466       -1.2781400038
 C        -8.3722938372       -3.8669640848       -0.6801809991
 C        -5.2316621371        2.0571750347       -0.0451477415
 C        -4.9662971522        3.2239908824        2.3749250645
 C       -11.9373335356        6.4361103890        1.7835895916
 C       -10.2620073541        8.3560229760        1.0477982989
 C       -14.0957370265        8.0635746637        6.2464291013
 C       -12.7923015386       10.1321585643        6.6691723810
 H       -13.3682667370        9.2781380751        9.4033507297
 H       -12.4629607412        7.9390189284       10.0842280215
 H       -14.0647029110        7.6285078524        9.3430016037
 H       -10.1256655443        7.0831084086        6.5968888522
 H        -9.5964890683        8.3715348047        5.6615347418
 H       -11.3861628797        6.0628666170        4.3741098828
 H        -9.7998006300        5.5445730598        4.8719455585
 H        -7.6587037505        6.9609219554        0.7846560299
 H        -7.8442061335        5.8489489706       -0.6894989281
 H        -8.1088028494        4.7034919964        2.1377893625
 H        -6.6919665735        5.5761909913        1.9397560801
 H        -7.5086702858        0.7735774564       -0.1120523512
 H        -8.7453874818        0.8674367719        1.2928891305
 H        -7.7390760122       -0.7242133620        2.6220944881
 H        -6.3467010773       -1.0268962591        1.5456011781
 H       -10.6600177215       -2.8535440051       -0.5148056430
 H       -10.5609906535       -3.0200502909       -2.1589048678
 H       -11.9027843511       -0.3923494197       -1.3739047738
 H       -12.5684513749       -2.0479454354       -1.8733165447
 H        -8.5712662498        0.5829585737       -4.3383559127
 H        -8.1163655677        1.8223981567       -3.2607760279
 H        -9.7060424366        2.8179734360       -5.5711255358
 H        -7.8947368523        2.5761952277       -5.6716570226
 H       -10.9013699312        6.5356855891       -6.4552280689
 H       -11.9605390318        6.8401826668       -4.9848351765
 H       -12.0447151164        5.3329350335       -6.1363704865
 H        -8.6307203015        7.5140895827       -4.5798803305
 H        -7.1826997901        6.6918339333       -3.8237454381
 H        -8.8812286310        6.6259458218       -3.0314944853
 H        -7.5654294433        5.3217747797       -6.4604365733
 H        -8.6421574999        6.6648861492       -6.6476867845
 H        -9.3243834054        5.1022938089       -6.9039813326
 H       -11.7208622717        1.0398843805       -6.1681769585
 H       -11.8082491364       -0.6098082925       -5.7614540556
 H       -10.3559779354        0.1699065985       -5.8907763823
 H       -13.4586265640        0.3137562772       -3.7750950432
 H       -13.0767355561        1.8574971994       -4.2661075715
 H       -12.8050073101        1.5016640379       -2.5644771499
 H        -5.8631366007       -2.7392005704       -1.0597160396
 H        -6.3476286407       -1.1813841779       -1.1386093845
 H        -7.0935162763       -2.0333928959       -2.4275816815
 H        -8.4977921302       -4.0040759039       -1.7568739415
 H        -9.1978055277       -4.1823880871       -0.0844533676
 H        -7.5758119843       -4.5286417624       -0.3383520666
 H        -5.9572654758        1.5595037302       -0.6165391061
 H        -4.3868485752        1.5106006693        0.2880153019
 H        -4.6849367458        2.8498711792       -0.5377882933
 H        -4.6211276918        2.4493862987        3.0614861611
 H        -5.6165329139        3.8189099321        3.0449606069
 H        -4.1654049437        3.8855435996        2.0297968278
 H       -12.4047695134        6.8163264273        2.6210310019
 H       -11.9964476927        5.3666551296        1.6195031075
 H       -12.4347126433        6.8343302824        0.8982484613
 H       -11.2683699843        8.8335346796        1.1691652462
 H        -9.9485484013        8.4214162288       -0.0078423378
 H        -9.4198420881        8.8769950592        1.5171085900
 H       -14.1974038008        7.0458577763        6.5515056742
 H       -14.2750508454        8.1789109376        5.1731297536
 H       -14.6998110509        8.6500749440        6.8514121189
 H       -13.3759290468       10.5653240334        7.4333955111
 H       -13.1136766945       10.7556073478        5.8198516236
 H       -11.9041940674       10.5566753849        6.9899967195
 Na       -9.6121008902        4.0567234268       -1.6646075283
