117

 C       -12.6362121832        8.5528477109        9.2278429134
 C       -11.7828575877        8.2409634811        7.9649503060
 O       -10.6663094826        7.8529291979        8.0649753916
 C       -12.4130677565        8.7965122282        6.5710101400
 C       -11.7145382400        8.2676700067        5.1821302673
 O       -12.0764350519        8.6577284959        4.0924385195
 C       -10.4204833839        7.4399956652        5.2408912483
 C       -10.3173292451        6.4096738355        4.1840821629
 C        -9.7936810810        6.8672572116        2.8615615141
 O        -8.6459083746        7.2705393613        2.7218639659
 C       -10.5405622616        6.7252908273        1.4824049736
 C        -9.7010051360        5.7647835700        0.5945911677
 O       -10.1379653575        4.8151256136       -0.0540187999
 C        -8.1935900739        6.1728065387        0.4104806525
 C        -7.2046938034        5.0976036550        1.0724703343
 C        -7.1937854360        3.6396991861        0.4525214767
 O        -7.4707129940        3.3081371164       -0.6502040639
 C        -6.3517582613        2.5607893091        1.2486164091
 C        -7.4813608374        1.8707000531        2.1799845027
 O        -7.7906216738        2.3127051978        3.2829596149
 C        -8.0777163372        0.5175012291        1.5517550561
 C        -7.3337392598       -0.9187798338        1.8983330837
 C        -8.0702781112       -2.1534387487        1.2437593029
 O        -8.8369297768       -2.7926094329        1.9350448423
 C        -8.0111948533       -2.3090126069       -0.3625944979
 C        -9.2791786641       -1.4374791376       -1.1456349136
 O        -8.9929441640       -0.5058627844       -1.9288808063
 C       -10.7070512462       -1.7505306659       -0.6372175763
 C       -11.8435262182       -0.8333921804       -1.2677205994
 C       -11.7038606135       -0.8388254840       -2.8648194547
 O       -11.6165149093       -1.8653588987       -3.4533529435
 C       -11.6841335309        0.5547784306       -3.9738351644
 C       -10.6408034969        1.4245070226       -3.4179935421
 O       -10.8897559008        2.0048220202       -2.3629690382
 C        -9.2291927521        1.4011888299       -3.9296725190
 C        -9.0864756547        2.4449000760       -5.0157833365
 C        -8.3514593578        3.6898960741       -4.3681064995
 O        -7.5038474393        3.4856738315       -3.4904719091
 C        -8.4780127575        5.0841856429       -4.9786229473
 C       -10.0747885149        5.3694948825       -4.7201190473
 O       -10.5860795425        5.1048634490       -3.6614050106
 C       -10.8124977702        6.3050704123       -5.6055445769
 C        -7.8298149822        6.3869429911       -4.3356197126
 C        -8.3071754751        5.0420134401       -6.5458311795
 C       -11.5110370835       -0.2240369528       -5.2743505278
 C       -13.0055621884        1.3475770426       -4.0009654175
 C        -6.7280365316       -1.7514304091       -0.9585208659
 C        -8.1474078606       -3.8188516615       -0.6591721008
 C        -5.5661272973        1.6506715776        0.1927098260
 C        -5.3632842586        3.1237473411        2.3261407715
 C       -11.9876150505        6.2748872684        1.5706154040
 C       -10.5834554404        8.0610009500        0.6472582217
 C       -13.8578519969        8.2356733828        6.3968013123
 C       -12.4764460188       10.2774064628        6.5835183686
 H       -13.0758678146        9.5929416830        8.8729766482
 H       -11.8858905096        8.7497930134       10.0449787017
 H       -13.3490009524        7.7994815810        9.5370648650
 H       -10.3903085491        7.2198479509        6.3552163010
 H        -9.4219949924        8.1537585170        5.2401473939
 H       -11.3178043352        6.0489307246        4.1495095065
 H        -9.6723251911        5.6321602704        4.6898743740
 H        -8.0760451063        7.2732533930        0.6688946957
 H        -7.7886550705        6.1241507900       -0.6065632063
 H        -7.3676640451        5.0010944387        2.1084407759
 H        -6.1219742382        5.2883618556        1.0817667964
 H        -8.3529691974        0.4616500612        0.4590910005
 H        -9.1818205261        0.4421545500        1.9290745387
 H        -7.4627800007       -1.0667510372        3.0170068461
 H        -6.2782587709       -0.7963638798        1.5487192975
 H       -10.7925408693       -1.9156048045        0.4680936306
 H       -10.7345878987       -2.8197584137       -0.9568729605
 H       -11.7719093454        0.1748915575       -0.7973335021
 H       -12.7932242802       -1.3067649558       -0.9834820814
 H        -9.0868919072        0.4019618907       -4.3077941303
 H        -8.5311880614        1.4539725625       -3.0998622099
 H       -10.0020162743        2.7220669819       -5.4789623096
 H        -8.4147437477        1.9924940445       -5.6979515878
 H       -10.2124417092        7.1174491456       -6.1140669707
 H       -11.4105945268        6.7967228375       -4.8027326800
 H       -11.2918421198        5.8561633881       -6.3945103401
 H        -8.3048895763        7.3175417667       -4.6621321537
 H        -6.7765001946        6.5351396106       -4.5938333807
 H        -8.0418617251        6.2592507690       -3.2224886970
 H        -7.3399070024        5.2881179548       -6.7253904301
 H        -8.8993309244        5.7717747759       -7.1535790717
 H        -8.5207254961        4.0383646175       -6.9400163178
 H       -11.3482838980        0.3185843503       -6.1240688275
 H       -12.4585784412       -0.6389631485       -5.6030138854
 H       -10.8267927672       -1.0446202168       -5.2371355166
 H       -13.5521707112        1.1286814278       -4.8670626255
 H       -12.8620398767        2.3990430297       -4.1282202433
 H       -13.6414617758        1.2453869195       -3.1075782640
 H        -5.7961886358       -2.0924098644       -0.4004963318
 H        -6.5002879074       -0.7296060602       -0.9448026937
 H        -6.6640315600       -2.1329344109       -2.0434325967
 H        -8.4382845842       -3.9711718537       -1.6907711536
 H        -8.6893743386       -4.4359508804        0.0593390035
 H        -7.1851390717       -4.2294651769       -0.6359674589
 H        -4.9608719324        2.2530324435       -0.3976871794
 H        -6.2639328458        1.1011443320       -0.3767860884
 H        -5.1034996461        0.8667552099        0.7453395649
 H        -4.8826251408        2.3644489549        2.8922522750
 H        -5.9619925564        3.5787127789        3.0709571832
 H        -4.5664352151        3.6434989520        1.9458857969
 H       -12.5218870762        6.9011115516        2.2835170031
 H       -12.0658608626        5.2526250667        1.8011218195
 H       -12.3781278547        6.4737775490        0.5947215267
 H       -11.0666766018        7.9918139210       -0.3433568281
 H        -9.6883189743        8.5874058742        0.6189400419
 H       -11.3499060839        8.6209044161        1.2642708283
 H       -13.8424075533        7.1640828740        6.3195195265
 H       -14.1615437198        8.6720148710        5.4775738284
 H       -14.4512679534        8.4849517403        7.2233457160
 H       -13.1100093324       10.8038710411        7.3295687145
 H       -12.8329800792       10.7482835013        5.7283287830
 H       -11.5049170913       10.8091755077        6.6498899637
 Na       -9.3847169920        3.6035766465       -1.8355901098
