117

 C       -12.1998357327        8.6341383784        9.0829270763
 C       -11.2776815172        8.7678782955        7.8612035646
 O       -10.0465990650        8.7137625977        7.9148259968
 C       -12.0508421840        8.9858213907        6.4564779045
 C       -11.5682042178        8.2751843885        5.0635909423
 O       -12.0410758147        8.5758997178        3.9900343357
 C       -10.4745710572        7.0967314654        5.1549161655
 C       -10.3027769703        6.0881554124        3.9669386900
 C        -9.9113435045        6.8737894140        2.7057038704
 O        -8.9341568160        7.6827690589        2.7805089405
 C       -10.6077078324        6.5767150055        1.3683243145
 C        -9.7375300674        5.5834323454        0.4514507961
 O       -10.3394160616        4.6679767657       -0.1103853336
 C        -8.2532855987        5.9022132241        0.1505446553
 C        -7.3824820054        4.8989780434        0.9745458207
 C        -7.3214423373        3.4529193677        0.4367923409
 O        -7.8829117464        2.9691532190       -0.4907763725
 C        -6.4360951370        2.6382875827        1.5308743304
 C        -7.8320348668        2.0397155095        2.1404762988
 O        -8.5457310256        2.7550362044        2.8406879488
 C        -8.3875113088        0.7705169364        1.5235758621
 C        -7.7754745167       -0.5959255374        2.0024056612
 C        -8.4591469887       -1.9615904726        1.3736445433
 O        -9.0722620376       -2.6803057618        2.1560183394
 C        -8.2856628950       -2.0852256076       -0.1406761768
 C        -9.2918109112       -1.3239121719       -0.8538608429
 O        -9.0683662279       -0.9164295918       -2.0142541219
 C       -10.6377973015       -1.2081054512       -0.1377434723
 C       -11.6841932680       -0.5616048999       -1.0586347991
 C       -11.4287517503       -1.0354188376       -2.6075581432
 O       -11.4852122984       -2.1695862609       -2.9963233258
 C       -11.7804369470        0.1468445172       -3.5768351761
 C       -10.7419143169        1.2419163701       -3.6555402487
 O       -10.9501445639        2.2640214569       -2.9967365075
 C        -9.1157329623        1.1123874272       -4.2127088980
 C        -8.9567372078        2.1864523018       -5.3074732346
 C        -8.3039925665        3.4727492055       -4.6312034728
 O        -7.7448665073        3.2468598808       -3.5597035806
 C        -8.3106508410        4.8901588185       -5.3573480141
 C        -9.5318830545        5.6477720267       -4.6741331340
 O        -9.6429435661        5.6499511082       -3.4866570790
 C       -10.5235040676        6.5321128010       -5.4426544866
 C        -7.0307983082        5.6730231959       -4.8845224477
 C        -8.3119081584        4.7452686868       -6.8859051695
 C       -12.0292761742       -0.4694768178       -4.9946638152
 C       -13.1778279336        0.5564611902       -3.0326718093
 C        -6.8986387146       -1.7720400629       -0.7187541566
 C        -8.4424231851       -3.5980023259       -0.4777514131
 C        -5.5533789797        1.6008153937        0.6984416521
 C        -5.6251058176        3.3123119928        2.7300009082
 C       -12.2026480347        6.1665235120        1.4218566370
 C       -10.5374342809        7.8980485057        0.5616316956
 C       -13.6230687531        8.4691045043        6.6391466826
 C       -11.9387244352       10.4240998887        6.1222444583
 H       -12.8513934905        9.5318818420        8.7888675277
 H       -11.5379091253        8.8356214545        9.9421895675
 H       -12.7267752803        7.6767202402        9.0128424520
 H       -10.7116433128        6.5949491464        6.2276661657
 H        -9.5254265372        7.8079978659        5.3396069238
 H       -11.2718020825        5.7236926766        3.9572708499
 H        -9.5579248709        5.3149568637        4.3519389277
 H        -7.7851293048        6.8466239623        0.4256235364
 H        -8.1352763364        5.8330899471       -0.9178575100
 H        -7.5060230617        5.0022052562        2.0480308863
 H        -6.3459493691        5.3058720330        0.7844484807
 H        -8.3265146953        0.9689895194        0.4158216541
 H        -9.5264873862        0.6215338647        1.8148958130
 H        -7.8868882715       -0.5975884130        3.1281591221
 H        -6.6781133286       -0.6954222601        1.8985377235
 H       -10.3428936653       -0.6942956007        0.8110609274
 H       -11.0103974865       -2.1995503588        0.2820497944
 H       -11.2426846619        0.3814719760       -1.3362653342
 H       -12.6439102572       -0.4900039972       -0.5941001278
 H        -9.0372871360        0.0982939988       -4.5414999991
 H        -8.5228442859        1.2105906060       -3.2701700071
 H        -9.8672695827        2.5181193578       -5.7021160753
 H        -8.3495073204        1.8679618075       -6.1207541117
 H       -10.3886597507        7.6112328374       -5.0664794693
 H       -11.5372892898        6.2267656414       -5.1766385527
 H       -10.4556129324        6.6705575235       -6.5181497030
 H        -7.1160726664        6.5753419404       -5.4149273642
 H        -6.1213814457        5.1618085825       -5.0464335851
 H        -7.0856095667        5.9839761939       -3.7805048479
 H        -7.8841817174        3.8952997833       -7.3060384027
 H        -7.9071375383        5.6667756863       -7.3005725069
 H        -9.3587463601        4.6509348439       -7.2224668958
 H       -12.6010938863        0.1021267071       -5.6192220783
 H       -12.5119057031       -1.4258234392       -4.9784024032
 H       -11.0821317520       -0.8311177141       -5.5356571305
 H       -13.6289971838       -0.2561812910       -2.4215943000
 H       -13.8884931348        0.6780626134       -3.8879838527
 H       -13.2333804112        1.4029694272       -2.3861455110
 H        -6.0582982511       -2.3649570903       -0.2450830445
 H        -6.6424517689       -0.6242482523       -0.7534983558
 H        -6.7544337192       -2.0839725188       -1.6680510878
 H        -8.2535815400       -3.8364093904       -1.5397744615
 H        -9.5478046851       -3.7443118798       -0.3802523906
 H        -7.9140107798       -4.1833061568        0.1837626945
 H        -4.7574365146        2.0569932361        0.1491183744
 H        -6.1624080051        0.8900219183        0.0674111277
 H        -4.9816691801        1.0402943567        1.4686722867
 H        -4.9887144560        2.5185646384        3.1698314286
 H        -6.3044275908        3.6743945160        3.5519376886
 H        -4.8197867983        3.9627066410        2.4228555304
 H       -12.9423811988        6.9615656477        1.8459601491
 H       -12.2123959619        5.2725207076        1.9859486430
 H       -12.3949448759        5.9440292824        0.3729617459
 H       -10.2424986789        7.7200656738       -0.4549544117
 H        -9.8006938436        8.5249627460        0.8593751701
 H       -11.5396081812        8.3046921826        0.4641602897
 H       -13.5026782796        7.3644743537        6.9174245630
 H       -14.0795622099        8.5500680136        5.6439989784
 H       -14.2157015423        9.0759345101        7.3916353960
 H       -12.4354229159       11.1279168950        6.8668299664
 H       -12.3612697133       10.8087207657        5.2476351332
 H       -10.9279368371       10.8850826505        5.9081816190
 Na       -9.3540170808        3.8101245681       -2.0220362062
