117

 C       -11.7183207489        8.6976082097        9.0240090526
 C       -11.0216640212        8.8775863464        7.5315997326
 O        -9.8527322262        9.0475807161        7.4989702874
 C       -11.9817482414        8.9979535025        6.3201535170
 C       -11.3660219555        8.2013153309        5.0849139961
 O       -11.8916520773        8.3304495209        4.0012338081
 C       -10.4090743304        6.9531029975        5.2785588266
 C       -10.4934967063        6.1508773253        4.0022510958
 C        -9.9821242068        6.9339896967        2.8311562310
 O        -9.0644090177        7.6857860372        2.7823325909
 C       -10.7891011567        6.6074328787        1.2414604251
 C        -9.8498766455        5.6558930388        0.3919175349
 O       -10.3699785680        4.6490185268       -0.0681392692
 C        -8.3155974353        6.0202109621        0.2347644206
 C        -7.2919154564        5.0382203793        0.8606968265
 C        -7.3515829123        3.5389764554        0.5136382063
 O        -7.6074629063        3.0349575725       -0.6170295718
 C        -6.6513864428        2.6427017267        1.5945209711
 C        -8.0107416070        1.9446394685        2.0917492927
 O        -8.5860123651        2.3690081446        3.0567050727
 C        -8.4927609134        0.6229276896        1.4587367872
 C        -7.8670143388       -0.5528858287        2.2213728548
 C        -8.3544275077       -1.8569942942        1.6125326470
 O        -9.1261115794       -2.5033578042        2.2824330460
 C        -8.2010560213       -2.1780997220        0.1093797181
 C        -9.1855593053       -1.3107517261       -0.8138569987
 O        -8.8012559181       -0.7669030111       -1.8202290636
 C       -10.7165764766       -1.2457259421       -0.1243301171
 C       -11.7456255380       -0.5674417663       -0.9575847245
 C       -11.7540485224       -0.9837359346       -2.4200955476
 O       -11.4307545898       -2.1117772853       -2.6526414299
 C       -12.0677388699        0.2045574993       -3.7330906663
 C       -10.8939600169        1.2160163729       -3.7490339627
 O       -11.0790651473        2.1772856803       -3.0162631614
 C        -9.5579029667        0.7998792585       -4.4768917960
 C        -9.0572336664        2.0910113396       -5.2563425066
 C        -8.3920168274        3.3187533183       -4.6100530707
 O        -7.8103429124        3.1774535579       -3.5787219220
 C        -8.3749703866        4.7029601212       -5.4350916273
 C        -9.2659167566        5.7615581899       -4.7009800569
 O        -9.0624140276        5.9078944045       -3.4776649269
 C       -10.1331434247        6.6917113596       -5.6693282199
 C        -6.9281429468        5.2788834285       -5.2251208221
 C        -8.5089114389        4.5476070998       -6.9483465149
 C       -12.1856372794       -0.7145640389       -4.9700877103
 C       -13.2689550485        1.0370597786       -3.4947016743
 C        -6.5877814369       -1.8686424429       -0.2618836970
 C        -8.5281076449       -3.6273755008       -0.0880198850
 C        -5.6161544654        1.7522605808        0.9972043276
 C        -6.1148776694        3.5010141273        2.7284859427
 C       -12.2249302284        6.1309872371        1.4381003110
 C       -10.6978374010        8.0092438304        0.4538026666
 C       -13.4694547065        8.6799069115        6.4572711899
 C       -11.7965582448       10.4718565040        5.9667309434
 H       -12.0605632079        9.6732866356        9.2681160672
 H       -10.8902148896        8.3664462205        9.5978925079
 H       -12.4080692962        7.9404791107        8.7945993279
 H       -11.0073396974        6.6051835407        6.0112639335
 H        -9.3927626945        6.9710388604        5.5370040214
 H       -11.5632250587        5.7220909818        3.8197245220
 H        -9.7564578316        5.3704021206        4.1385757060
 H        -8.0024002048        6.9757164446        0.7597625320
 H        -8.1661204145        6.2317180982       -0.8751775201
 H        -7.5522042397        5.0854938103        1.9372904522
 H        -6.3185198015        5.4530960378        0.7469815410
 H        -8.3550291219        0.6249655845        0.3587626463
 H        -9.5085963418        0.5162195688        1.6762362345
 H        -8.2072986661       -0.5414000276        3.2625516909
 H        -6.7689364362       -0.4660216323        2.4298506211
 H       -10.3923895744       -0.5934663781        0.7206195714
 H       -11.1059195530       -2.1462588567        0.2983974002
 H       -11.7767936125        0.5409357416       -0.8732643889
 H       -12.7750918488       -0.9727062863       -0.6673220743
 H        -9.8999263853       -0.0221417028       -5.1433447977
 H        -8.9603552707        0.4360762852       -3.6682597668
 H        -9.8316049809        2.6030270370       -5.9651041179
 H        -8.2938918742        1.7651788661       -6.0073826893
 H       -10.4025020968        7.6465160653       -5.2813951207
 H       -11.0531171929        6.0811629969       -5.9399198224
 H        -9.6267924367        6.8197638291       -6.6202528877
 H        -6.9452195667        6.3515087458       -5.5453709945
 H        -6.1062663361        4.6293092604       -5.6807158165
 H        -6.6795959810        5.2360700689       -4.1911175374
 H        -7.6077073050        4.1178162438       -7.3961070474
 H        -8.7918385184        5.4660632037       -7.4733561646
 H        -9.2085895396        3.7861070317       -7.2151417560
 H       -12.6617027465       -0.0891713751       -5.7742111571
 H       -12.8336500843       -1.6496533536       -4.8289498476
 H       -11.3277890565       -1.1080243765       -5.3638077518
 H       -14.2111800399        0.5916476025       -3.4608242161
 H       -13.2725380618        1.9044743598       -4.1241189101
 H       -13.1865443331        1.4572528036       -2.4408131480
 H        -5.9398028013       -2.3505688999        0.4457415246
 H        -6.4082898046       -0.8601252319       -0.4064633831
 H        -6.0365016449       -2.3425804135       -1.2107946127
 H        -8.3788738750       -3.9580578336       -1.0873119220
 H        -9.5638326146       -3.7596241728        0.1215392943
 H        -7.8276758532       -4.1360862892        0.6184545028
 H        -5.2097064189        2.0837171827        0.0797224473
 H        -6.0445519041        0.8193022745        0.7902678682
 H        -4.7505213737        1.7936778715        1.5854888296
 H        -5.6420580750        2.7936440780        3.3853282783
 H        -6.9412824827        3.9019266827        3.2411429966
 H        -5.3678881419        4.2577971553        2.4870127450
 H       -12.5890295516        6.6850044146        2.2013370823
 H       -12.1867639352        5.0436616117        1.6350301408
 H       -12.7873247281        6.3657627838        0.5520323506
 H       -11.1068791153        7.9490546399       -0.5765384309
 H        -9.6266225964        8.2613796473        0.2286509728
 H       -11.2322285593        8.8226853875        0.9579295842
 H       -13.5731173534        7.6698484532        6.6522013287
 H       -13.9972652597        8.9479205182        5.5586761611
 H       -13.7743877936        9.3085649874        7.2170856477
 H       -11.9816656038       11.2584793494        6.6310217262
 H       -12.2641893073       10.9096995349        5.0685902035
 H       -10.8005693035       10.5948096165        5.6619402117
 Na       -9.3928793670        3.5790091633       -2.0577708606
