117

 C       -11.2559057226        8.6436140912        8.7269197595
 C       -10.8084206201        9.0283732337        7.3559244420
 O        -9.5863112621        9.0304858022        7.0896208167
 C       -11.7414731425        9.1278820432        6.1414312252
 C       -11.3281693153        8.2238062983        4.9617203922
 O       -11.8564261636        8.4286010385        3.8864565744
 C       -10.4999197632        6.8953578077        5.1766702385
 C       -10.4474025809        5.9357630021        3.9180263366
 C       -10.0534133112        6.8278487115        2.6414058861
 O        -9.1373264925        7.6191663833        2.7643495380
 C       -10.8186693950        6.7192418026        1.2301232133
 C        -9.9467195152        5.7429707248        0.2220687180
 O       -10.5437154488        4.6806334123        0.0207693461
 C        -8.4320636902        6.1059525561       -0.2395534483
 C        -7.4823345470        5.4885376895        0.7923575039
 C        -7.2613312206        3.9244459562        0.6636170085
 O        -7.4695176892        3.3817466564       -0.3776636347
 C        -6.7915991836        2.8667245681        1.7448288903
 C        -7.9912943113        1.9818670769        2.3408351094
 O        -8.5256338791        2.3534944430        3.3659341755
 C        -8.3724558608        0.6335527954        1.5542145343
 C        -7.9185066524       -0.6551820854        2.3683886556
 C        -8.5416947693       -1.9717015103        1.8906423315
 O        -9.2768564809       -2.6163307285        2.5862957709
 C        -8.2221918693       -2.2931632517        0.3270216923
 C        -9.2762988265       -1.3791673945       -0.5717186181
 O        -8.8024530818       -0.5947616165       -1.3610658447
 C       -10.8151926299       -1.5046225366       -0.4108312175
 C       -11.4859369512       -0.3491695710       -1.1302998744
 C       -11.8271450899       -0.7822410210       -2.5498019284
 O       -11.5513270558       -1.9331663050       -2.8165916233
 C       -12.2362233743        0.1939979302       -3.7601543193
 C       -10.8865269137        1.1421965709       -3.7002995886
 O       -10.8498725169        2.0980763968       -2.9135810697
 C        -9.5383977587        0.8199245109       -4.5217235306
 C        -9.3107963629        1.9767257197       -5.3978034215
 C        -8.4332591761        3.1425923189       -4.8811073347
 O        -8.0285731135        2.9990584579       -3.7263154509
 C        -8.1162549425        4.5433620471       -5.5650126384
 C        -9.0243355015        5.7348133656       -4.6733834614
 O        -8.9836748503        5.5534186924       -3.5095114157
 C        -9.7248593939        6.7538451613       -5.5672487931
 C        -6.5706072312        4.7023597387       -5.6095442079
 C        -8.7615922222        4.3879750135       -7.0009977722
 C       -12.3483605187       -0.7426421090       -4.9541278675
 C       -13.6056144897        0.9433514296       -3.4917372399
 C        -6.8168900418       -1.9308343517       -0.0165536445
 C        -8.5095927485       -3.8121117594        0.1115017477
 C        -5.6803299439        1.9460258720        1.1827096891
 C        -6.1527400782        3.5066304204        3.0270685054
 C       -12.1736446584        5.9509810050        1.4140006727
 C       -10.9587292339        8.1496475913        0.7130329929
 C       -13.3281336391        8.8487610067        6.6190104887
 C       -11.6849318212       10.5628944874        5.5193304512
 H       -11.4500479095        9.5981819000        9.1475646576
 H       -10.3065447013        8.2549328971        9.0865175890
 H       -12.0468824717        7.8935311981        8.4944668578
 H       -10.7736128886        6.2923496538        6.1977853282
 H        -9.4586375965        7.3319032430        5.1760222300
 H       -11.3758486700        5.5084808609        3.8589029141
 H        -9.6842143921        5.1609476084        4.1397371151
 H        -8.3637928008        7.1471860672       -0.2685258885
 H        -8.1062744125        5.7053778993       -1.1671154901
 H        -7.6993945225        5.7221299825        1.8415741904
 H        -6.4657905314        5.9553130725        0.5354533937
 H        -7.9406714090        0.6374911014        0.5497369208
 H        -9.4810889286        0.6489710030        1.5178515870
 H        -8.1723466448       -0.5904764824        3.4021232829
 H        -6.8834619429       -0.5925145953        2.4682836202
 H       -11.1649907126       -1.5273686534        0.6045820441
 H       -10.9459720354       -2.5115718600       -0.9172171287
 H       -10.7186921677        0.4476383933       -1.0719999995
 H       -12.4440718230        0.0634422613       -0.6707976812
 H        -9.8382006887        0.0436767294       -5.2034427182
 H        -8.8060002699        0.5344837988       -3.7100656796
 H       -10.1874929696        2.5014808076       -5.5883239940
 H        -9.0695004643        1.5667964439       -6.3934581194
 H       -10.5782262413        7.2153864921       -5.0943205077
 H        -9.8964381540        6.3817932768       -6.5234945229
 H        -8.9478276226        7.5380942854       -5.7968612356
 H        -6.1509832140        5.6162894324       -5.9923730744
 H        -6.2408321449        3.8490359285       -6.1201299972
 H        -6.1415035694        4.4290357270       -4.6283617401
 H        -8.5555195572        3.3434715492       -7.3881550516
 H        -8.4104070136        5.0643089503       -7.7575077372
 H        -9.8864041063        4.4401076032       -7.0319265326
 H       -11.9580152305       -0.3678567547       -5.9376740274
 H       -13.3486071834       -1.1456221274       -5.0798616778
 H       -11.7737982706       -1.7146025728       -4.7522395569
 H       -14.4740767306        0.4786085919       -4.0626908420
 H       -13.5213798672        2.0333574668       -3.7677225005
 H       -14.0555450963        0.9735125051       -2.5422334216
 H        -6.2284149885       -2.5834009610        0.5688400342
 H        -6.5280521243       -0.8936232509       -0.1913326251
 H        -6.5909037023       -2.3229948374       -0.9590866755
 H        -8.6021963071       -4.0827513086       -0.9690862186
 H        -9.4954482478       -4.0291256016        0.5953250040
 H        -7.6784481109       -4.3528244499        0.5679627550
 H        -4.9638127959        2.4910786498        0.4681166256
 H        -6.1489039908        1.1827323614        0.5310526499
 H        -4.9233716263        1.6759208521        1.9730172222
 H        -5.8906597342        2.7013991461        3.7966173043
 H        -6.7190863714        4.3851159531        3.4861417399
 H        -5.2729443848        4.0202742994        2.5557015214
 H       -12.7086958574        6.7884084487        1.9532860169
 H       -12.0504583976        5.0418845740        1.9926772300
 H       -12.6748773612        5.7556474007        0.4544751675
 H       -11.6109905135        8.2995831941       -0.1423907642
 H       -10.0263564678        8.7188068590        0.5051370212
 H       -11.4571540251        8.6174457853        1.5741803751
 H       -13.3930845232        7.8258049961        7.0109092302
 H       -14.0190574455        8.9835209567        5.8190714163
 H       -13.4919163499        9.6362302384        7.3901521701
 H       -12.3327572637       11.2631478268        6.0726409826
 H       -12.0410169595       10.7584742210        4.4925576080
 H       -10.7848866164       11.1747813394        5.5196622557
 Na       -9.4621321414        3.7584549006       -1.9235181452
