117

 C       -10.8225481951        8.6940739203        8.4945190886
 C       -10.4599818284        8.9987765910        6.9518927574
 O        -9.2809663481        9.0934526220        6.7376226307
 C       -11.6422593378        9.1766878414        5.8984792379
 C       -11.4891170034        8.1295389060        4.7214965493
 O       -11.9470437331        8.3924797699        3.6229018813
 C       -10.6833159446        6.9283573066        5.1364114039
 C       -10.5023826199        5.9306234684        3.9551350972
 C        -9.9850623368        6.8135513071        2.6803468737
 O        -8.9696230701        7.4669880873        2.5013164987
 C       -10.8603306151        6.5795242155        1.3506383176
 C       -10.0195604602        5.7123164155        0.3620146930
 O       -10.5507782287        4.8227239752       -0.2425291216
 C        -8.5498806848        6.2137762163        0.1113169519
 C        -7.5531501114        5.5028125127        1.0715944462
 C        -7.4480135811        3.9997830517        0.7890671047
 O        -7.7447370441        3.4852343930       -0.2998964025
 C        -6.8135621793        3.1087026616        1.9173895124
 C        -7.9365894976        2.0934887365        2.5678144634
 O        -8.5170542482        2.4498817660        3.5685185481
 C        -8.3372938219        0.8666132271        1.7545190746
 C        -8.1090441551       -0.4688099245        2.4793714337
 C        -8.6315821877       -1.9302955959        1.9922238329
 O        -9.3360369610       -2.6191910296        2.7477463811
 C        -8.3259589796       -2.3474102332        0.5474116009
 C        -9.2647056139       -1.3453233440       -0.2799183794
 O        -8.7209720747       -0.4917522598       -0.9510970598
 C       -10.7754914271       -1.5291338547       -0.2607288353
 C       -11.4560567524       -0.4842515744       -1.2774379343
 C       -11.6599109735       -1.0575034136       -2.7525793688
 O       -11.8445357033       -2.2012218842       -3.0457135656
 C       -12.0819625811        0.1767716878       -3.7668824039
 C       -10.9670486553        1.2034416674       -3.5773005570
 O       -11.0675870175        2.1385049622       -2.8300518666
 C        -9.7680561496        0.7891997770       -4.4964083763
 C        -9.4496974835        1.8883812920       -5.5932385748
 C        -8.5660360894        2.9570590155       -5.0004527474
 O        -8.2369232326        2.7073499776       -3.8651287278
 C        -8.3132820411        4.2549901018       -5.8063775561
 C        -8.8590609182        5.3809306452       -4.8620277917
 O        -8.8939179345        5.0999572833       -3.6407781086
 C        -8.9358050655        6.9239756013       -5.3355690826
 C        -6.7256926388        4.3354199080       -5.7804341193
 C        -8.7931354820        4.3648307381       -7.2478389800
 C       -12.3042887003       -0.1862971300       -5.2273849690
 C       -13.3722484185        0.9741416299       -3.1734242729
 C        -6.9376359254       -2.1921201862        0.1066552533
 C        -8.8319220200       -3.8084396698        0.3349324192
 C        -5.6088996394        2.3170166472        1.1981306096
 C        -6.2467859135        3.9686484247        3.0716004443
 C       -12.3949934497        5.9957853637        1.4683038085
 C       -11.0121984405        7.9672806759        0.7417674153
 C       -13.0215983636        8.9113592943        6.5203159926
 C       -11.4990976156       10.6398711958        5.5231348998
 H       -11.5143817143        9.5345035845        8.7954663769
 H        -9.8415604682        8.7675807377        8.9134846966
 H       -11.1823993622        7.7145535851        8.4108618168
 H       -10.9168628004        6.5047770868        6.0738858681
 H        -9.6966843349        7.4297760148        5.2152370299
 H       -11.3325621467        5.1197432665        3.8127137239
 H        -9.5307123177        5.3919127632        4.1028409045
 H        -8.6919284074        7.3123136919        0.4610554089
 H        -8.2702329548        6.2125272307       -0.9815882399
 H        -7.9493252022        5.5668545111        2.0850475117
 H        -6.5684658214        5.8882865183        1.0845457970
 H        -7.7848414621        0.9393084015        0.8126808630
 H        -9.4410370998        1.0427188314        1.5982902250
 H        -8.4379878926       -0.3968365199        3.5678064370
 H        -6.9567575358       -0.4980133538        2.6452110527
 H       -11.1706263545       -1.2273304346        0.7797006939
 H       -10.9861187684       -2.5679765596       -0.5045205944
 H       -10.7767534685        0.3363471212       -1.3657105513
 H       -12.3927725085       -0.0679180240       -0.9531787039
 H       -10.1263573746       -0.1157811798       -4.9716260075
 H        -9.0102380252        0.6447886283       -3.7847680542
 H       -10.2825997385        2.4138937281       -6.1689974540
 H        -8.8908550931        1.4474066097       -6.3902167920
 H        -9.9982896878        7.2830930888       -5.1938462447
 H        -8.5721612928        7.1235392503       -6.4003627946
 H        -8.3081551360        7.5471455898       -4.7565823608
 H        -6.3623379553        5.3108809131       -6.1535758930
 H        -6.2426747917        3.5373127334       -6.3870144037
 H        -6.3695066719        4.2091978667       -4.7576451423
 H        -8.4550826154        3.5423939790       -7.7710054038
 H        -8.3992949144        5.2388275744       -7.8306204405
 H        -9.8601833988        4.4677461060       -7.3653742622
 H       -12.2013559226        0.6783586877       -5.7743886369
 H       -13.3061526865       -0.6139124485       -5.3309203052
 H       -11.5177062355       -0.8259264858       -5.6407746817
 H       -14.2453079932        0.4530258442       -3.3875171932
 H       -13.4828221564        1.9763598976       -3.4630551621
 H       -13.4760094422        1.0699812981       -2.0592933983
 H        -6.1820082585       -2.9094191387        0.5923217698
 H        -6.7302802537       -1.1028959764        0.2612303090
 H        -6.7740172910       -2.2178387042       -0.9636289690
 H        -8.6923906892       -3.9541766180       -0.7276590612
 H        -9.7591523406       -4.2009664210        0.7261562677
 H        -8.0069400955       -4.3219224032        0.7781170599
 H        -4.7127731743        2.7514794258        1.4801094252
 H        -5.6630307070        2.4727242649        0.1284408711
 H        -5.5246506907        1.2747559717        1.4706367721
 H        -5.9714273889        3.2622909077        3.8008261767
 H        -7.0048027641        4.5884635158        3.4965869766
 H        -5.5385090621        4.6937124266        2.7512289545
 H       -13.0022899423        6.6051956379        2.1302528743
 H       -12.3558865172        4.9255454601        1.6658256093
 H       -12.7702343142        6.1051759129        0.4510895355
 H       -11.2693639781        7.8862145349       -0.3162073773
 H       -10.1516025017        8.5806273968        0.8122532802
 H       -11.7505447764        8.5045347908        1.3267233509
 H       -13.0942640207        7.8409078898        6.8428691313
 H       -13.7607746333        9.1449345879        5.6933023822
 H       -13.1494400876        9.6222744519        7.3462397343
 H       -11.6552125428       11.4378630573        6.2764704494
 H       -12.1090616759       10.9678868368        4.7411800261
 H       -10.4907936540       10.9848855902        5.2266262039
 Na       -9.3013571539        3.7190226263       -1.9041175271
