117

 C       -10.1334635245        8.8782704734        8.2335280951
 C       -10.0198493605        9.1755807051        6.6136786497
 O        -8.9374401981        9.2304627481        6.1432596002
 C       -11.4656054100        9.2840851723        5.8282162542
 C       -11.3339518885        8.1625245546        4.7520207172
 O       -11.8360126234        8.2662818246        3.6550861545
 C       -10.6043903281        6.9118348014        5.0787297290
 C       -10.8064957397        5.9913362038        3.9153390532
 C       -10.2645136098        6.6584956659        2.5294540563
 O        -9.4125744206        7.4780739259        2.7448246795
 C       -10.9635091539        6.5157166352        1.1407092759
 C       -10.1595984080        5.8568809981        0.0192706439
 O       -10.6636797390        4.9165957952       -0.5540748096
 C        -8.6381646569        6.1424631697       -0.1338520432
 C        -7.7115636538        5.5341064334        0.9798019927
 C        -7.5367885358        3.9093624388        1.0029964434
 O        -8.1450846266        3.1237985915        0.2339785798
 C        -6.7380861918        3.1386329980        2.1313871637
 C        -7.9243597667        2.2157218785        2.7164238162
 O        -8.4441155065        2.4989393318        3.7779325365
 C        -8.1824141546        0.9702833637        1.8550144276
 C        -7.9820139512       -0.2883600033        2.7378557891
 C        -8.7303141309       -1.5385476291        2.3056381671
 O        -9.4188738066       -2.1705730309        3.1119705846
 C        -8.6637357757       -2.1598074002        0.9000121263
 C        -9.2873778399       -1.2635048196       -0.1592840419
 O        -8.7986095005       -0.4098181984       -0.8673050498
 C       -10.6867175288       -1.9023984005       -0.6657288133
 C       -11.7910987655       -0.9838314155       -1.2572364438
 C       -12.0189581958       -0.9775749962       -2.8411248145
 O       -11.8826603976       -2.0194872407       -3.4482951428
 C       -12.3711676419        0.3042092166       -3.5035432304
 C       -11.0052791237        1.0687589879       -3.7029095938
 O       -10.9304815488        2.0787580710       -3.0436714288
 C        -9.8404255350        0.3906101857       -4.6078226492
 C        -9.3334858997        1.5618687619       -5.5375767027
 C        -8.4487955304        2.6985679622       -4.8824837779
 O        -7.8241648905        2.5408716234       -3.8497562034
 C        -8.2408772762        4.1828337263       -5.8045198737
 C        -8.4625388898        5.4405868276       -4.9470735702
 O        -9.0485803202        5.3165925003       -3.8884304254
 C        -7.7558026387        6.7357543738       -5.4795929098
 C        -6.7614857979        4.0065327820       -6.3528221749
 C        -9.0430543290        4.3778568066       -7.1412599826
 C       -12.8872643157       -0.1491728860       -4.9550991447
 C       -13.5026750046        1.1303082679       -2.6773944640
 C        -7.0237567998       -2.2837873258        0.5588388078
 C        -9.2182945845       -3.5312385358        0.9620565832
 C        -5.4607897783        2.4746529603        1.5023251958
 C        -6.1806470506        4.1451434135        3.3040184995
 C       -12.4484318127        5.9101053560        1.2658370244
 C       -11.2347797176        7.9935854212        0.6758330325
 C       -12.7626682312        9.0952981380        6.6626655228
 C       -11.3332142638       10.6668762637        5.0434181942
 H       -11.0761361854        9.3239471281        8.7091982335
 H        -9.1723419609        9.3030344038        8.4910086022
 H        -9.9602971551        7.8100625531        8.1935583136
 H       -11.0483027691        6.2909052804        5.9496211558
 H        -9.4199604942        6.8258275584        5.2934226705
 H       -11.8443499792        5.6121152481        3.7039556044
 H       -10.2633438161        5.1599099926        4.2277595333
 H        -8.5037945481        7.2010222597       -0.0516186043
 H        -8.4063330501        5.8585993841       -1.1236186082
 H        -8.2251384750        5.7544959050        1.9762229844
 H        -6.7161539953        6.0103807259        0.9588974551
 H        -7.4422286271        1.0644002008        0.9951165913
 H        -9.1975332723        0.9734129164        1.4152516602
 H        -8.3834139951       -0.0313956356        3.6796804895
 H        -6.9339222593       -0.5974710074        2.7715046253
 H       -11.1728191584       -2.4090852131        0.1546631523
 H       -10.5340555815       -2.6236550767       -1.5262527127
 H       -11.5597694291        0.0922062307       -1.1174086910
 H       -12.7260585557       -1.0877095882       -0.6668255984
 H       -10.2776215509       -0.4904689099       -5.2237272171
 H        -9.0645109931        0.1013347087       -3.8843180923
 H       -10.1738968374        2.0964454631       -5.9459309024
 H        -8.8277847167        1.3156184116       -6.4348323729
 H        -7.9850575483        6.9978610020       -6.4867322805
 H        -6.6658017819        6.5924479622       -5.3043592151
 H        -8.0154778163        7.5837551730       -4.9105579771
 H        -6.5656380261        4.7441044822       -7.1285890719
 H        -6.7823495579        3.1326532959       -7.0115014018
 H        -5.9538092590        4.0642666851       -5.7039565289
 H        -8.4050671134        4.1124366832       -7.9841015626
 H        -9.2072304469        5.4746646200       -7.3270494286
 H       -10.0715322977        4.0492007797       -7.2243029677
 H       -13.4026732854        0.7292740966       -5.3584263337
 H       -13.6908922579       -0.8838973127       -4.7038545318
 H       -12.1316213947       -0.4538109789       -5.6627942803
 H       -13.7805003968        0.8668817027       -1.6683257872
 H       -14.4615889110        1.1885450034       -3.2006322202
 H       -13.2100167943        2.2629386061       -2.6541830567
 H        -6.4562600867       -2.6726206775        1.4382326875
 H        -6.6206479906       -1.2957122065        0.5336355958
 H        -6.7888073032       -2.8628466216       -0.3792960909
 H        -9.0977065719       -3.9524956945       -0.0301047979
 H       -10.2213634705       -3.4379088366        1.3416799446
 H        -8.7574456547       -4.1222569469        1.8180931683
 H        -4.7959712676        2.2267951766        2.3591951601
 H        -4.7605622286        3.2153999167        0.9569743297
 H        -5.7010084320        1.6765204110        0.7413550571
 H        -5.6621809046        3.4749275318        4.0148412311
 H        -7.0285992492        4.6134469767        3.8743167622
 H        -5.6438813862        5.0645528051        2.9210372354
 H       -13.0504017696        6.5536586134        1.8284182675
 H       -12.3012541142        4.8619119460        1.6671785447
 H       -12.8877657720        5.7830868043        0.2527437489
 H       -11.6689418884        7.9137611530       -0.3210823954
 H       -10.2694881695        8.5440852947        0.6691311903
 H       -11.7627659063        8.6488915810        1.3674804983
 H       -12.7584154515        8.2254512512        7.2586436502
 H       -13.5593764258        9.0567614701        5.9091381526
 H       -12.8668914325        9.9049873404        7.3248992613
 H       -10.9737038645       11.5773801579        5.5453900189
 H       -12.1585266160       11.0995142827        4.4815801243
 H       -10.4912629745       10.6745643773        4.3138675256
 Na       -9.2187993118        3.4769504394       -2.1498268160
