117

 C        -9.1133666319        9.2763561101        7.7073103335
 C        -9.4230838913        9.2734177831        6.2087667329
 O        -8.5104205912        9.4979879217        5.3960616809
 C       -11.0286676072        9.4327791704        5.7291383109
 C       -11.4927366892        8.3204303382        4.6963329522
 O       -12.5828293366        8.4784478068        4.1360626736
 C       -10.6884454882        6.9810940382        4.6540903886
 C       -11.2156812740        6.1234402846        3.4869906727
 C       -10.5536138456        6.6399209065        2.2500004313
 O        -9.4654345298        7.1684878089        2.2973307621
 C       -11.1823475276        6.4418183937        0.7839820377
 C       -10.1886098151        5.5858619757       -0.0763554094
 O       -10.6249813168        4.6183718931       -0.7255436822
 C        -8.7010202588        6.1726770540       -0.3596320338
 C        -7.5466756176        5.4412928876        0.4944646605
 C        -7.5870616725        3.9821219792        0.6972160892
 O        -7.9608438032        3.2485957544       -0.1880455552
 C        -7.0008704663        3.4185102197        2.0295135317
 C        -7.9356367847        2.4106697253        2.8728220795
 O        -8.0561380065        2.5766907658        4.0812119128
 C        -8.4082311856        1.0737794432        2.1320601325
 C        -8.1410740300       -0.1506562222        2.9439363711
 C        -9.1344544853       -1.3699367450        2.4270611608
 O       -10.2161596242       -1.3818518268        2.8790516652
 C        -8.7110493639       -2.3535847340        1.2568921748
 C        -9.5885952557       -1.4968191271        0.2012777430
 O        -9.3348473366       -0.3210176608        0.0962409283
 C       -10.8747129049       -2.1258377601       -0.4046866964
 C       -11.7481939208       -1.2411946735       -1.1223785152
 C       -11.8432750623       -1.0557836143       -2.6328065371
 O       -11.6181001509       -1.9329850911       -3.4666254961
 C       -12.3331238010        0.3860880706       -3.2223984951
 C       -11.0030080305        1.1933862622       -3.4009059176
 O       -11.0876980296        2.3851575183       -3.1924476963
 C        -9.8899106026        0.4725115556       -4.1732770292
 C        -9.3413957212        1.1943621053       -5.4692543219
 C        -8.5856988574        2.4488677769       -4.9297262502
 O        -8.1660735840        2.3989966143       -3.8175097816
 C        -8.3614535259        3.8384508224       -5.7813417314
 C        -7.6935523523        4.9326434282       -4.8251857383
 O        -8.1413139880        5.2316205356       -3.6882919628
 C        -6.5787062333        5.7409621966       -5.3337002960
 C        -7.2139929432        3.2635272151       -6.7006795534
 C        -9.4858376094        4.4492858011       -6.5395680977
 C       -12.9210252986        0.6030216245       -4.6631518342
 C       -13.2648578901        1.2419477491       -2.2948457427
 C        -7.3027803998       -2.5125653340        0.9406680455
 C        -9.2999508525       -3.7885161183        1.6790279686
 C        -5.6932591839        2.6473060512        1.4988813436
 C        -6.5387049496        4.5453171304        2.9574699947
 C       -12.4747280480        5.6761454408        0.8183213727
 C       -11.4400226173        7.8679932202        0.1595193047
 C       -12.1139389023        9.3397429570        6.9099389147
 C       -11.0550631364       10.6559468365        4.8549186044
 H        -9.0014431658       10.3579774262        7.8723704861
 H        -8.1246651853        8.7973044943        7.9911051365
 H       -10.0901852135        8.9537907760        8.2602741008
 H       -11.0480611604        6.4004392626        5.6341380572
 H        -9.5819492695        7.1519303877        4.7594488101
 H       -12.1729978420        6.5422562697        3.2291124300
 H       -11.2833163896        5.0037382755        3.2548457578
 H        -8.6353786914        7.2221446974       -0.0785484157
 H        -8.5586910182        6.2185093653       -1.4178786872
 H        -7.4863979555        5.9221767185        1.4776620733
 H        -6.5389411918        5.5731031770        0.0055004422
 H        -7.9569004379        0.9189020706        1.1721593297
 H        -9.5301331113        1.2778812534        1.8601460979
 H        -8.6008382084       -0.0313887112        3.9093075073
 H        -7.1126365422       -0.3950151619        2.9512131888
 H       -11.4778472603       -2.3800312096        0.5952996131
 H       -10.6245828390       -3.0998811355       -0.8664445232
 H       -11.8397281087       -0.2653080038       -0.6387706113
 H       -12.8064554370       -1.5172448894       -0.9933362345
 H       -10.3211844628       -0.3748846908       -4.6628731944
 H        -9.0709406337       -0.0249913120       -3.6617624382
 H       -10.1827050636        1.4420666046       -6.1274936021
 H        -8.7615599624        0.5239518516       -5.9841848865
 H        -5.5999363534        5.4844200491       -4.8983723583
 H        -6.7278922907        6.7615264945       -5.1644449970
 H        -6.4742659556        5.6679744991       -6.4374422867
 H        -6.6387891293        3.9522550585       -7.2702407157
 H        -7.5468285422        2.5033995009       -7.3851234588
 H        -6.3660242300        2.8303281673       -6.0658764653
 H        -9.7930355998        3.9779556337       -7.4788554910
 H        -9.4244770838        5.5328596980       -6.6620090528
 H       -10.3598622334        4.3304250029       -5.8913114194
 H       -12.8264760500        1.6642161192       -4.8789397049
 H       -13.9524034830        0.3776349612       -4.7089364391
 H       -12.3479560990       -0.1188346698       -5.3167851319
 H       -13.3739766083        2.2921029154       -2.6913691372
 H       -12.8175577868        1.4140075399       -1.2763171505
 H       -14.2834519106        0.9008758076       -2.2876019270
 H        -6.8342962610       -2.9795768440        1.8187075734
 H        -6.7887907349       -1.5196785573        0.9670483571
 H        -7.2012364736       -3.1991170063        0.0781438245
 H        -9.0351045290       -4.5402728194        0.8648279163
 H       -10.4342797903       -3.6832836540        1.8455041222
 H        -8.7476021095       -4.1032221410        2.5339448842
 H        -5.9775575375        1.6685658311        0.9520075426
 H        -4.9922119633        2.3723979092        2.3334407724
 H        -5.0103529693        3.4002535634        0.9759459301
 H        -5.9654301521        4.1945028012        3.8855236078
 H        -7.4982714581        4.9790691973        3.3392737544
 H        -5.7536728364        5.2233809620        2.5792922763
 H       -13.3597163949        6.2512084926        1.2872068351
 H       -12.3564672133        4.7730021451        1.3684232613
 H       -12.6365474539        5.4342979338       -0.2365907095
 H       -11.5890173771        7.8230063279       -0.9446381017
 H       -10.7324432787        8.6392454836        0.4401164282
 H       -12.5015915637        8.1323357232        0.3857186935
 H       -11.9454828625        8.3248767532        7.2308152746
 H       -13.0902664310        9.3654008795        6.5536116449
 H       -12.0474937055       10.0647789924        7.6927056637
 H       -10.8099546243       11.6696458963        5.2612691523
 H       -12.0616032234       11.0093356890        4.5110173881
 H       -10.6429961899       10.5786793314        3.8305869919
 Na       -9.0686540396        3.6051015369       -2.2804888503
