117

 C        -8.8147248986        9.2143786682        7.3796883122
 C        -9.4281352676        9.2322448359        5.9094861536
 O        -8.6835597368        9.1172629128        4.9793101757
 C       -10.9629851342        9.5485240494        5.7236231278
 C       -11.5262163879        8.4581274122        4.8028358835
 O       -12.6158487437        8.6428818272        4.3368950460
 C       -10.6718393222        7.0362578475        4.6442675269
 C       -11.3278637159        6.3020869406        3.4175194063
 C       -10.5893956317        6.6999527470        2.0425983473
 O        -9.5815891090        7.3654617903        2.1243129683
 C       -11.2565490719        6.3706282754        0.6613196189
 C       -10.1186587929        5.5381654632       -0.2885636596
 O       -10.5057388866        4.4533126259       -0.6451930307
 C        -8.7748867380        6.0498850080       -0.6592938507
 C        -7.7383156339        5.4088072767        0.2093427467
 C        -7.6369469751        3.9387184124        0.5611339504
 O        -8.0088142603        3.0796771722       -0.2377151811
 C        -6.8922201774        3.5019904840        1.8882188285
 C        -7.8575121662        2.4743970025        2.7192823631
 O        -7.9239667230        2.6878308415        3.8931906522
 C        -8.5504962911        1.2620523662        2.1379539917
 C        -8.3875988311       -0.0878588812        2.9780163559
 C        -9.3871726397       -1.1127535299        2.5124680756
 O       -10.5349640463       -1.1789699124        2.9698707812
 C        -9.1179430627       -2.1607474101        1.3372351012
 C        -9.8069798661       -1.6200516581        0.0856757449
 O        -9.3918066998       -0.5960279198       -0.4209538674
 C       -11.0132168379       -2.3511224002       -0.4731620067
 C       -12.0446994608       -1.1712841370       -0.8123071558
 C       -11.9217814674       -0.9394502717       -2.3608235962
 O       -11.5691015525       -1.8849533517       -3.0101241436
 C       -12.3185884091        0.4242541196       -3.0238535809
 C       -10.9093441499        1.2494280013       -3.2960400962
 O       -10.7070975860        2.4643484227       -3.1851114503
 C        -9.9145732311        0.4632372382       -4.1749215520
 C        -9.5358797244        1.4975155239       -5.2781048952
 C        -8.3852976432        2.4606297268       -4.7954798065
 O        -7.8510384497        2.2581071416       -3.7105622767
 C        -8.1053594351        3.7284765550       -5.7323881020
 C        -7.4394035180        4.7849966234       -4.8943032988
 O        -7.8026138609        4.9832055877       -3.7588637762
 C        -6.1544224557        5.3841841492       -5.4210336939
 C        -7.4305867385        3.0398872599       -6.9429837967
 C        -9.5338117663        4.3718152788       -6.0414518675
 C       -12.8630552651        0.0444974708       -4.4307246223
 C       -13.0777419433        1.2062143646       -2.0066568137
 C        -7.4670655743       -2.2792811335        1.1140074897
 C        -9.5552659478       -3.6176572043        1.7497429301
 C        -5.6003212045        2.6860848955        1.5619447249
 C        -6.5070637655        4.7350635199        2.9644743347
 C       -12.5812656919        5.5579011239        0.7566127509
 C       -11.4756168775        7.8063703977        0.1285796458
 C       -11.6543827169        9.7412368150        7.0615842915
 C       -11.1455127047       10.9700407217        4.9272128902
 H        -8.7574272068       10.2782653284        7.8233039468
 H        -7.7818395526        9.1034880977        7.1906921469
 H        -9.1800102776        8.5485058277        8.1249859310
 H       -10.7366929489        6.4626575702        5.5032894298
 H        -9.6642093920        7.1533924540        4.4239780293
 H       -12.3795877966        6.5908806857        3.0920766610
 H       -11.3444009915        5.2523655192        3.5777725826
 H        -8.6479128383        7.1528990698       -0.4443226208
 H        -8.6912000607        6.0149910529       -1.7841970119
 H        -7.7157824209        5.9663007566        1.1662211007
 H        -6.7627175752        5.5508777387       -0.1926297735
 H        -8.3607460643        1.1223449869        1.0374263787
 H        -9.5597305520        1.5574363248        2.1984449335
 H        -8.6403944357        0.0733758222        4.0736454441
 H        -7.3963486221       -0.6523641371        2.8614444827
 H       -11.3713267688       -3.0487705937        0.2032643963
 H       -10.8156175550       -2.8767600293       -1.4214007383
 H       -11.9185602754       -0.2445510719       -0.3042854186
 H       -13.0922951151       -1.3375800393       -0.6048870110
 H       -10.1012750986       -0.6049921955       -4.6020119983
 H        -8.9966352532        0.1312632243       -3.6167896361
 H       -10.4636425252        2.0632226423       -5.3740338295
 H        -9.2284810945        1.1864326239       -6.3467202919
 H        -5.3251460381        4.9448844541       -4.8332125720
 H        -6.1104435668        6.5251449441       -5.3709613592
 H        -5.9210842559        5.1918911912       -6.4250202708
 H        -7.2096969914        3.6682757075       -7.8016832294
 H        -7.9849191039        2.1411231824       -7.2088165846
 H        -6.5109893984        2.5904029682       -6.6969985897
 H       -10.1713250729        3.6731578812       -6.4862215186
 H        -9.4380853390        5.1675701102       -6.8122863178
 H       -10.0406454499        4.7868801458       -5.1560354160
 H       -13.1488994505        0.9648030338       -4.8517928190
 H       -13.7108909451       -0.6608608168       -4.3670512658
 H       -12.1094644701       -0.5588404927       -4.9894575538
 H       -13.8708003293        1.8556506067       -2.3157001402
 H       -12.3736835644        1.8384154346       -1.5159167470
 H       -13.5419940434        0.4929889682       -1.2526968467
 H        -6.8862889516       -2.2775127456        2.1045180202
 H        -7.1389096668       -1.3914927601        0.5201027436
 H        -7.2625136375       -3.1691985896        0.6468433760
 H        -9.6863060588       -4.1904110128        0.8720746282
 H       -10.4703071373       -3.5792690427        2.2468107806
 H        -8.6986763096       -4.0781211195        2.2719784347
 H        -5.5978466690        2.4593578956        0.5285225385
 H        -5.6621768970        1.7309689883        2.1008427423
 H        -4.6813004189        3.0693729646        1.9308900117
 H        -6.1501505651        4.2871810990        3.8730409654
 H        -7.3810677497        5.2849550797        3.2720752075
 H        -5.5894830596        5.2846326044        2.7634620597
 H       -13.4260672069        6.0451144233        1.1641381786
 H       -12.4072984574        4.6301357616        1.3685767556
 H       -12.7336996487        5.2802869586       -0.2855755137
 H       -11.9435062658        7.7515858963       -0.8317075316
 H       -10.5016193499        8.1647014617       -0.1227495549
 H       -12.0850849087        8.4884066147        0.6815421571
 H       -11.4805972575        8.9067562515        7.7564376834
 H       -12.7877807824        9.8755744501        6.9532226289
 H       -11.3326092577       10.7523815317        7.3600253428
 H       -10.8576418946       11.8393104999        5.4795609279
 H       -12.0968600407       11.2943443789        4.6621542846
 H       -10.7486180286       10.9567749421        3.9209916155
 Na       -9.0993980603        3.5596053938       -2.1367938173
