117

 C        -8.4360591480        9.2920088764        7.0210585582
 C        -9.3199782054        9.2760177688        5.7671961822
 O        -8.7588054156        9.0703064778        4.6941556618
 C       -10.8457145492        9.7301570414        5.5941391009
 C       -11.6297102965        8.4412385634        4.8543406488
 O       -12.7291778993        8.7867696424        4.5237511687
 C       -10.8769337816        7.0904376252        4.5201818218
 C       -11.3416952472        6.4759513173        3.2841470696
 C       -10.5993040118        6.8950766537        2.0389305955
 O        -9.4113450424        7.1794069539        2.0103315955
 C       -11.3036677064        6.4146234777        0.6250721287
 C       -10.2868679379        5.4790393235       -0.1861592035
 O       -10.6568994800        4.3643079303       -0.6058568818
 C        -8.8732784866        5.8932774395       -0.6094189276
 C        -7.7631882688        5.4621145982        0.3515151882
 C        -7.6309163947        4.0018886664        0.6192948504
 O        -7.9469341760        3.2531094231       -0.2827340940
 C        -6.8429959111        3.5314568220        1.8674988870
 C        -7.7936917007        2.5783547310        2.6873551654
 O        -8.0309442682        2.6230512616        3.8826653119
 C        -8.6013960910        1.4362912536        1.9596469946
 C        -8.6747602111        0.2883667455        2.9045159076
 C        -9.6700750518       -0.9088113355        2.4924035378
 O       -10.7283490784       -1.0195493946        3.0874245758
 C        -9.1543272174       -1.9457081008        1.4912447587
 C        -9.8792109575       -1.6860164031        0.1587155542
 O        -9.3114936622       -1.1460486097       -0.8072202187
 C       -11.3337202808       -2.3116610789       -0.1127514713
 C       -12.2422058995       -1.3721038053       -0.7869661439
 C       -11.9730151676       -1.0664234557       -2.2182746531
 O       -11.2946794655       -1.8183231180       -2.8786162218
 C       -12.4448704307        0.3294475466       -2.8217623543
 C       -11.0182440736        1.1011344770       -3.1990994753
 O       -10.8043884984        2.1522584268       -2.6054843553
 C       -10.0181631183        0.4017254271       -4.0423065478
 C        -9.1940709668        1.1153986194       -5.2191246344
 C        -8.2373335209        2.3362320911       -4.8122369399
 O        -7.5205191136        2.1412098454       -3.8830722771
 C        -7.9324079670        3.7142953375       -5.7422378740
 C        -7.1115810763        4.6522777856       -4.9336376944
 O        -7.4110680323        4.8383225569       -3.7420228217
 C        -5.7984388576        5.1151899939       -5.4704251317
 C        -7.4831432150        3.3525355351       -7.1116695587
 C        -9.3637084028        4.4208378821       -5.8371680904
 C       -13.5589288289       -0.0524313360       -4.0291554769
 C       -13.2357682420        1.3572174939       -2.0784858783
 C        -7.5634953997       -1.9382658040        1.1688080374
 C        -9.5776145658       -3.3329157621        2.0603130410
 C        -5.6217258792        2.5474648389        1.3916057716
 C        -6.5089299382        4.7893981304        2.7834644433
 C       -12.6641842720        5.5545599769        0.8102406660
 C       -11.5804548103        7.6242736960       -0.4162956384
 C       -11.4211394887        9.8154718141        7.1563174572
 C       -10.9211324671       11.0890613833        4.9295775671
 H        -8.6172210066       10.0347137644        7.7087459570
 H        -7.3117817771        9.3674164203        6.8581896348
 H        -8.5955930271        8.2692504294        7.4874124556
 H       -11.0777608651        6.2791843664        5.3528939226
 H        -9.7228733446        7.3306237552        4.5548006985
 H       -12.3999511513        6.5024232909        3.1552703491
 H       -11.1636783392        5.3497665114        3.3834797289
 H        -8.7330162019        6.9238899784       -0.6332224751
 H        -8.7138736011        5.6366066113       -1.6548967221
 H        -7.8930733681        5.9969535860        1.2819403363
 H        -6.7182672082        5.8003379059        0.0208686346
 H        -8.0137979794        1.1651458708        1.1174667845
 H        -9.6055382266        1.7722988793        1.6033911929
 H        -8.9498568474        0.5880078547        3.8719225635
 H        -7.7081018103       -0.1259678202        3.0844376605
 H       -11.9596838568       -2.6158510792        0.7693173674
 H       -11.2359149654       -3.2706098300       -0.7010931298
 H       -12.2876791515       -0.3610626047       -0.2976678624
 H       -13.3138563484       -1.6610861572       -0.6325980471
 H       -10.2783974882       -0.4942541809       -4.4547656328
 H        -9.1974496785       -0.0516692859       -3.4867711469
 H        -9.9231208797        1.4144967468       -6.0009719055
 H        -8.5283607393        0.4113028361       -5.6436567531
 H        -5.1309140186        4.3497586321       -5.1399847279
 H        -5.4517984729        6.0331560239       -5.1395283898
 H        -5.7010467896        5.1681149660       -6.5967702388
 H        -7.3244224994        4.2964552730       -7.6877425261
 H        -8.2352682752        2.6975351561       -7.5560330128
 H        -6.5880501358        2.6710019076       -7.2805161723
 H       -10.0325622788        3.7983078932       -6.5739431973
 H        -9.3063167472        5.3691881389       -6.2883054699
 H        -9.8668951438        4.4986662814       -4.8869736785
 H       -14.0021598859        0.9433034876       -4.4672539258
 H       -14.3519380713       -0.5432712534       -3.4333570868
 H       -13.3089970016       -0.7819940148       -4.7258517989
 H       -13.1668080985        2.1452482322       -2.8523510451
 H       -12.7422365326        1.8374865603       -1.1971445034
 H       -14.2121480501        1.1492274705       -1.8403441557
 H        -7.0596231698       -2.4893075267        1.8805902870
 H        -7.1817436034       -0.9857665539        0.8973521291
 H        -7.4415357253       -2.5887391710        0.1575474466
 H        -9.8501801509       -3.9731722592        1.2258398283
 H       -10.5532401715       -3.0741985423        2.4617147143
 H        -8.8392866397       -3.7900034412        2.7522327653
 H        -5.4304307893        2.7546014070        0.2792255154
 H        -5.7733825451        1.5451831436        1.7545098417
 H        -4.6328814369        2.8306512136        1.8014813279
 H        -5.8980482649        4.6998367455        3.6516014491
 H        -7.3816668835        5.2703339587        3.1454575815
 H        -5.9348248793        5.4715497769        2.2067621208
 H       -13.3379732928        6.1331693669        1.4456497784
 H       -12.4765210474        4.6717443599        1.3768500488
 H       -13.1487369295        5.3447703772       -0.1354476499
 H       -12.3864461269        7.3879941811       -1.1424627952
 H       -10.7803528637        7.9323989048       -1.1911081574
 H       -11.9370634583        8.4809251437        0.1584666853
 H       -11.4705295158        8.8069551560        7.5815134684
 H       -12.3510112728       10.2750461505        7.2814834923
 H       -10.6957933789       10.4530865206        7.6701471721
 H       -10.7335500332       11.8124237658        5.6873875734
 H       -11.8453641744       11.5456175885        4.4362058148
 H       -10.3530720362       11.2864307311        4.0660909467
 Na       -8.9590668226        3.5402609250       -2.2640760121
