117

 C        -8.1205487473        9.4076563388        6.5901898227
 C        -8.9971777949        9.3855199097        5.4009491665
 O        -8.4126522997        9.3662786781        4.3181868159
 C       -10.4520458585        9.6486746507        5.5246502289
 C       -11.4617979442        8.6740817403        4.8354195855
 O       -12.6511529110        8.9276103744        4.6424868458
 C       -11.0447087936        7.2853475622        4.2616671136
 C       -11.8465276790        6.8882552654        3.0868256655
 C       -11.0088271032        6.8110444622        1.9394543990
 O        -9.9310832016        7.4874404627        1.9455742474
 C       -11.4296850620        6.2341136445        0.4561839154
 C       -10.3292374588        5.4601838116       -0.3644274455
 O       -10.4918173116        4.3625267635       -0.8273475794
 C        -8.9161826294        6.0556326740       -0.5697021240
 C        -7.8885941464        5.6588190329        0.4757590126
 C        -7.4587067304        4.1940343865        0.4675798530
 O        -7.7288998631        3.4552559096       -0.4861177185
 C        -6.6216561524        3.5683717352        1.7832479558
 C        -7.7196200536        2.7085686427        2.6848158479
 O        -8.1527166330        3.1754741335        3.7162036705
 C        -8.6171736888        1.5608427983        1.9965486080
 C        -9.1096469507        0.5095079123        2.9947499935
 C       -10.0390574362       -0.6768180100        2.4895489024
 O       -11.2107922109       -0.7514588031        2.7458461167
 C        -9.2837540778       -1.7867088035        1.6647451166
 C       -10.1334763651       -1.9855312336        0.3142341746
 O        -9.5305966158       -2.0469547967       -0.7557168699
 C       -11.7213339149       -2.1000518861        0.4243898263
 C       -12.6508522370       -1.4022287164       -0.5260531913
 C       -12.1284525860       -1.1423528591       -1.9577954239
 O       -11.3898061459       -1.8096320376       -2.6549962513
 C       -12.3408366169        0.3828863068       -2.6754885714
 C       -10.9877376017        1.0043564045       -3.0308451260
 O       -10.5998604642        2.1065515668       -2.6968345829
 C       -10.1150297313        0.2646381730       -4.1510090386
 C        -9.4184573010        1.2547115891       -5.1984383459
 C        -8.1284974422        1.9908946113       -4.7221829843
 O        -7.5094997540        1.5318322298       -3.7782948895
 C        -7.9274275764        3.4083622797       -5.4783911213
 C        -6.8100599555        4.2406213604       -4.6715006061
 O        -7.1170781818        4.5317208849       -3.5032407708
 C        -5.5228540537        4.5886976347       -5.4077212390
 C        -7.6727213037        3.2483472359       -7.1178533889
 C        -9.3133891493        4.2489365445       -5.4489848558
 C       -13.0860597838        0.0542935964       -4.0159068892
 C       -13.1754767299        1.4298487137       -1.8401013608
 C        -7.8418196439       -1.5683902589        1.3082675793
 C        -9.3855158514       -3.1724995689        2.4365569854
 C        -5.5075801499        2.5165256263        1.1810756582
 C        -5.9847432290        4.6229389893        2.6898981188
 C       -12.7880372350        5.3475368543        0.4684203328
 C       -11.7413513642        7.5845925745       -0.3209561756
 C       -10.8360578821        9.7477328761        6.9749674958
 C       -10.7794158221       11.1008150665        4.9724918896
 H        -8.0254643278       10.3731611125        6.9214316019
 H        -7.0785189764        9.1514402132        6.3835923182
 H        -8.2680213523        8.8038708150        7.4548957728
 H       -11.1950339307        6.6838554160        5.1559543366
 H        -9.9812746487        7.3559275801        4.0146060634
 H       -12.6289228144        7.6677601849        3.0240762787
 H       -12.4141959867        5.9968342050        3.0891005841
 H        -8.8800756965        7.1510189124       -0.7155432422
 H        -8.4868604691        5.6009745960       -1.4676741581
 H        -8.1726137847        5.8063829160        1.5374573904
 H        -6.9971105309        6.2449052018        0.4323428327
 H        -8.0608345984        1.2195956063        1.2009153520
 H        -9.4782106956        2.1422299914        1.5916910225
 H        -9.6778938929        1.0062248719        3.8401377069
 H        -8.3074778480        0.1572416881        3.6561247484
 H       -12.1852408820       -1.8121727098        1.4064423650
 H       -11.8345082715       -3.1116734768        0.4561468335
 H       -13.0551764180       -0.4590032984       -0.1433557686
 H       -13.5138957601       -2.0867850673       -0.6921202106
 H       -10.6874796870       -0.3471573735       -4.8555883113
 H        -9.4083562950       -0.6349094067       -3.9509009956
 H       -10.3547659229        1.9764408754       -5.2775121244
 H        -9.1606818944        0.8081540089       -6.1725115594
 H        -5.3486150513        3.8970696141       -6.2778921460
 H        -4.6529632923        4.5052327945       -4.8220564465
 H        -5.5416324934        5.6509109362       -5.8049319562
 H        -7.8071490566        4.2152774928       -7.5026923709
 H        -8.5441973917        2.7827283088       -7.5311518945
 H        -6.8677233949        2.6198194702       -7.5727146708
 H       -10.0840677973        3.9570933797       -6.2343133475
 H        -9.0348821924        5.2636257378       -5.7000518553
 H        -9.7091980791        4.3635551567       -4.4625448679
 H       -13.3418203146        0.9836040353       -4.6637153033
 H       -13.9266232938       -0.5845090867       -3.7689238258
 H       -12.3817836016       -0.5577442187       -4.5509911163
 H       -13.7371556047        2.1685383513       -2.4557991983
 H       -12.5626610880        1.9501461969       -1.0903642570
 H       -13.8912394361        0.8589545119       -1.2968844384
 H        -7.2935423195       -1.6643842562        2.1799942984
 H        -7.7408577778       -0.7733653614        0.6414533272
 H        -7.4791482160       -2.4122376428        0.5725178106
 H        -8.4928102398       -3.6908979743        2.1435069509
 H       -10.2685109439       -3.8320420456        2.3203804807
 H        -9.2456670531       -2.8470116405        3.4220100231
 H        -4.8621499151        3.0116254738        0.4752058488
 H        -6.0913436143        1.6987253604        0.8358724969
 H        -4.7550931272        2.2244892400        1.8703117135
 H        -5.6649758011        4.1048637191        3.6162745454
 H        -6.6380857944        5.4103677989        3.1131797643
 H        -5.1021912439        5.1237369269        2.2845926334
 H       -13.6310644187        6.0741375270        0.7579786820
 H       -12.7360736789        4.5381583570        1.1539065293
 H       -13.0615407519        4.9324871035       -0.5097838411
 H       -11.6450284591        7.4991408750       -1.3707052653
 H       -11.0342410006        8.3841066259       -0.1016746210
 H       -12.6730452877        7.9899386077       -0.0583351409
 H       -10.4586935448        8.7880049818        7.4512756092
 H       -11.9246354283        9.6463804274        6.9963159812
 H       -10.3882028461       10.5413951353        7.5975291183
 H       -10.2143176499       11.9404392640        5.3593325135
 H       -11.8023945289       11.3056324714        5.3122893988
 H       -10.9010959016       11.3592453419        3.9436140384
 Na       -8.8441666831        3.3133726937       -2.4030703909
