117

 C        -7.8928337380        9.4332985177        6.5583551487
 C        -8.8467899176        9.5184728774        5.2519307929
 O        -8.4839832417        9.3609747695        4.1306717390
 C       -10.4650989202        9.7262056001        5.5484832580
 C       -11.4636610456        8.7341672568        4.7297615000
 O       -12.5847944775        9.0443593022        4.6586987385
 C       -11.1063483698        7.2415808913        4.2834742236
 C       -11.9429661838        6.8174828019        3.1083858000
 C       -11.1248148198        6.8179668932        1.7222378290
 O       -10.0689327929        7.4157446816        1.7211598352
 C       -11.4637606568        6.3235708277        0.3213981445
 C       -10.2106625049        5.5643889735       -0.3521489280
 O       -10.5962067301        4.4741747091       -0.8290996030
 C        -8.8188949492        6.0960681241       -0.5282165312
 C        -7.8380361165        5.6702900081        0.6245192556
 C        -7.3676740702        4.1910125703        0.5684231637
 O        -7.5185485930        3.4677995089       -0.3749230072
 C        -6.6888198708        3.4811485098        1.7328251664
 C        -7.8364688430        2.8129641898        2.5526819297
 O        -8.1229245169        3.2894222732        3.6192186831
 C        -8.6701049529        1.6091235825        2.0077210825
 C        -9.0663302195        0.6116107840        3.0347654657
 C       -10.0049879380       -0.5298461427        2.4835781432
 O       -11.2095569738       -0.5558006365        2.7957642087
 C        -9.4114410567       -1.6661529385        1.7021365288
 C       -10.2800193300       -2.0451834514        0.3805894557
 O        -9.5982625635       -2.2195622007       -0.6176926833
 C       -11.7982794540       -2.3403561134        0.3426621845
 C       -12.5840355361       -1.4182672823       -0.5463872897
 C       -11.9190441485       -1.1330164187       -2.0149364970
 O       -11.5267422146       -2.0997060220       -2.5845905206
 C       -12.1896988056        0.3736820413       -2.7071430409
 C       -10.8815092888        1.0318397638       -3.1186978401
 O       -10.5409328442        2.1811830623       -2.7468539693
 C       -10.1613831127        0.2414724713       -4.1171745594
 C        -9.6806116892        1.3289757954       -5.1000433293
 C        -8.3511732788        1.8989844772       -4.6672756422
 O        -7.5896118007        1.4237390482       -3.8615182008
 C        -8.0111625809        3.2952301628       -5.4171531242
 C        -6.8468918251        4.0217933116       -4.7262022453
 O        -7.0094886163        4.3632161819       -3.5581620613
 C        -5.5798547413        4.4405197829       -5.2645282498
 C        -7.6863475535        3.0695500424       -6.8532742563
 C        -9.2297519673        4.2567084687       -5.2921907504
 C       -13.0540629575        0.0801233232       -3.9431565732
 C       -13.0521469552        1.5154454726       -1.9485083979
 C        -7.9749289955       -1.4368917661        1.2396019550
 C        -9.4896273317       -3.0557656663        2.5950477412
 C        -5.6376222745        2.5215384521        1.1356682985
 C        -5.9105812143        4.6080767456        2.4800675498
 C       -12.6278185976        5.2771094169        0.3559147846
 C       -11.8656735409        7.5552981653       -0.4228658148
 C       -10.6643154782        9.7918255241        7.1201253829
 C       -10.7655159576       11.1548156329        4.9988241366
 H        -7.7234930114       10.3220252961        7.1088483552
 H        -6.9086049627        8.9903566445        6.5497324130
 H        -8.3283801653        8.7763756143        7.2807484135
 H       -11.3655537127        6.7346483211        5.2885594785
 H        -9.9476582147        7.1607028314        4.0607372728
 H       -12.7280744611        7.4658852493        3.0803879593
 H       -12.4184788511        5.8401203055        3.3446886039
 H        -8.9382863063        7.1071695439       -0.4133048659
 H        -8.3716810152        5.8740427635       -1.5081759118
 H        -8.3011501507        5.8465110909        1.5697306852
 H        -6.8973619215        6.3061244489        0.7323601899
 H        -7.9817328196        1.1448876907        1.3168774800
 H        -9.5138720477        2.0192621799        1.4746080675
 H        -9.6850693779        1.0079520274        3.7767154380
 H        -8.2722664568        0.3303221539        3.6602488537
 H       -12.2860383531       -2.3542546257        1.3082081831
 H       -11.8242611812       -3.4472292598        0.0444550979
 H       -12.8348984694       -0.4474676788       -0.0520434520
 H       -13.5533259030       -1.9478601942       -0.8290851732
 H       -10.5135775639       -0.6781396215       -4.4835111154
 H        -9.2121707509       -0.1148464476       -3.6547278285
 H       -10.4938480901        2.0571779752       -5.1305161151
 H        -9.3324540318        0.9931731002       -6.1121743189
 H        -5.2774735965        4.0365324663       -6.1789264105
 H        -4.8275725327        4.1084554769       -4.5487636229
 H        -5.5110890947        5.5731711642       -5.3207648493
 H        -7.6514571877        4.0302083161       -7.4214520858
 H        -8.5403901262        2.5960550929       -7.4266824230
 H        -6.8571689344        2.3862880031       -6.9594772539
 H       -10.1383202836        3.8651494190       -5.8829153513
 H        -9.0077615107        5.2014686712       -5.7051563409
 H        -9.4203557235        4.5023988505       -4.2487079969
 H       -13.0613787246        0.7882275790       -4.8585225434
 H       -14.0433742461       -0.0617130908       -3.4179379942
 H       -12.6892352116       -0.8921553625       -4.2432476716
 H       -13.6177165721        1.9603426076       -2.7585646531
 H       -12.3869055857        2.3130452362       -1.5760587188
 H       -13.6849014199        1.2100777810       -1.1744392455
 H        -7.5002066670       -1.1074759313        2.1205733075
 H        -7.8411773264       -0.9550391168        0.3080364289
 H        -7.4998940940       -2.4038188421        1.0126605222
 H        -8.7564247446       -3.6480686837        2.1597760693
 H       -10.4087290954       -3.5658743942        2.5416414621
 H        -9.2724008610       -2.8197922593        3.6795472424
 H        -4.7031057520        3.0529876708        0.8642898329
 H        -6.0816401856        1.9458718719        0.3843935037
 H        -5.2575229533        1.9847342826        1.9533494679
 H        -5.4912603571        4.3372645444        3.4118929311
 H        -6.5266099596        5.4190702128        2.7251772756
 H        -5.1574471691        5.0511394234        1.8776836103
 H       -13.5069513660        5.5820137892        0.7870330320
 H       -12.2173968932        4.3252197326        0.7435573528
 H       -12.8878710946        5.0369747882       -0.6986911773
 H       -11.7973481248        7.3035816879       -1.4710382297
 H       -11.1579575537        8.4551185330       -0.3362484063
 H       -12.8125196006        7.9509019832       -0.2175184491
 H       -10.4580490427        8.7116437971        7.4082895769
 H       -11.6844344719        9.9861156874        7.4321875838
 H        -9.8923983340       10.3515634824        7.7122435113
 H       -10.1491585513       11.9274185857        5.3433721782
 H       -11.8039061458       11.5182935708        5.1852329282
 H       -10.6587031603       11.3868399776        3.9650701095
 Na       -8.7706561398        3.3544540444       -2.2567838134
