117

 C        -7.6061474455        9.3275386969        5.6717370743
 C        -8.7510122408        9.4423280287        4.6609185626
 O        -8.5817865255        9.1686796543        3.4478253478
 C       -10.1854855489        9.6887420435        5.2250473981
 C       -11.1740632104        9.0098142576        4.3193104244
 O       -12.3251684095        9.4303780799        4.0691314467
 C       -11.0466203172        7.5598636434        4.1479868357
 C       -11.6651734900        7.1269468326        2.8597313787
 C       -10.7196313874        7.1816643571        1.6971619791
 O       -10.1094493901        8.2019947100        1.4083073676
 C       -11.2647246669        6.3047695595        0.4337318046
 C       -10.1646019685        5.5743980232       -0.4812596633
 O       -10.5900846511        4.8000750342       -1.3197665561
 C        -8.7537666095        6.0904252454       -0.2740710677
 C        -7.9322422290        5.5884263704        0.9244100049
 C        -7.1630091539        4.2913928368        0.7132468364
 O        -7.1194079150        3.6812606383       -0.3604205763
 C        -6.5730494294        3.5468952996        1.9662375235
 C        -7.9691123360        3.2006935744        2.6428356387
 O        -8.3455161258        3.7409890046        3.6678996248
 C        -8.9065175730        2.1098455426        1.9047172859
 C        -9.3066466981        1.0328024470        2.9390390828
 C       -10.0660916487       -0.0712338681        2.2475957694
 O       -11.0948902889        0.2695658799        1.7309811498
 C        -9.5817089694       -1.5440615164        2.0169759637
 C       -10.2758570451       -2.1030703172        0.7030014180
 O        -9.5183973304       -2.5125819109       -0.1354075344
 C       -11.7713977671       -2.1013899720        0.7162320443
 C       -12.5038993062       -1.0170254761       -0.1527128769
 C       -12.3330887766       -1.0711225185       -1.6777549442
 O       -12.0704468379       -2.0607126934       -2.3905989186
 C       -12.6443927098        0.2013512827       -2.5726404452
 C       -11.0862534553        0.6864025926       -3.0624659676
 O       -10.5705070204        1.3840095415       -2.2170979626
 C       -10.4982043384        0.0698373364       -4.2624920208
 C        -9.4676213818        0.7815617508       -5.3806501628
 C        -8.3157771443        1.6548150563       -4.7024244257
 O        -7.9796205859        1.5046732951       -3.5461374573
 C        -7.9191230190        2.8697284799       -5.4005862838
 C        -6.7193835046        3.5538786443       -4.6235819708
 O        -7.0250677162        4.0653584712       -3.5753707515
 C        -5.3302478611        3.4884481183       -5.1987674598
 C        -7.5259778260        2.5533314774       -6.9549827662
 C        -9.2137786317        3.8375363041       -5.2973001425
 C       -13.5249687785       -0.1581020455       -3.7968695361
 C       -13.0488417851        1.4604554163       -1.8684754794
 C        -7.9834104630       -1.4975193260        1.9703963919
 C       -10.0236676540       -2.5078557729        3.2089335406
 C        -5.6655041071        2.2495293076        1.4299125830
 C        -5.8082884434        4.4747950706        2.9346240417
 C       -12.3008293071        5.1949662596        0.7185915523
 C       -11.8819972958        7.3961393045       -0.5872166653
 C       -10.2589704718        9.2212820268        6.5850566079
 C       -10.5191868703       11.2550184321        5.2210363902
 H        -7.6100118677       10.0192003995        6.5132850321
 H        -6.6127418123        9.3433337881        5.2973022103
 H        -7.5279380104        8.4507420435        6.2566727738
 H       -11.6899095723        7.2993399751        5.1289130557
 H        -9.9533807340        7.2796436277        4.3010761222
 H       -12.5428172183        7.7530977762        2.8175473789
 H       -11.9136948297        6.1274118711        3.0051534678
 H        -8.8006596015        7.1564392652       -0.0068408161
 H        -8.1558796094        5.9362305181       -1.1238413569
 H        -8.4119893079        5.5308189587        1.9115748165
 H        -7.1309714173        6.3607707768        1.0855936723
 H        -8.2813067955        1.7737300581        1.0358301491
 H        -9.8296528947        2.4373879158        1.4977526143
 H       -10.0573224090        1.4249452624        3.5801874537
 H        -8.5065243800        0.6477384662        3.4596293822
 H       -12.1898972163       -1.9551362208        1.7526497500
 H       -12.1243131242       -3.1414129622        0.5195251166
 H       -12.0405224631       -0.0215427603        0.0578857562
 H       -13.5946352012       -1.1702119419       -0.0416451312
 H       -11.2730469278       -0.3687660552       -4.9443023687
 H       -10.0214518423       -0.7485488527       -3.8681025053
 H       -10.0813834985        1.3968502030       -5.9860994569
 H        -9.0568121603       -0.1169629748       -5.9195398337
 H        -5.1368645360        4.1675588143       -6.0618171554
 H        -5.1301793079        2.4487321061       -5.5770866253
 H        -4.6443036148        3.6901203546       -4.4529060625
 H        -7.2823078487        3.5393824969       -7.4349610218
 H        -8.4397763976        2.0952173018       -7.4299563227
 H        -6.5519669619        2.0035237384       -7.0654128501
 H        -9.8805094575        3.3854611525       -5.9305222020
 H        -9.0537016929        4.8718707568       -5.7262414070
 H        -9.6051789465        4.0073199098       -4.2838675007
 H       -13.9381093610        0.7027368191       -4.3088015200
 H       -14.4027084414       -0.7109200390       -3.3949472502
 H       -12.8168754632       -0.8746239342       -4.3655481688
 H       -13.2623894262        2.1940503454       -2.6042974055
 H       -12.1753548763        1.7309281609       -1.3474283544
 H       -13.9612658947        1.3779281900       -1.2042746224
 H        -7.7072297425       -1.3358418884        2.9842029562
 H        -7.7176994996       -0.5518381909        1.5763722602
 H        -7.4252410513       -2.3954288354        1.5343643113
 H       -10.4900053688       -3.3962038691        2.7836042641
 H       -10.7080726822       -2.1111918856        3.9658578474
 H        -9.2070428809       -2.8383592719        3.7723898601
 H        -4.9357663316        2.6693847200        0.8517239705
 H        -6.0916689924        1.5999466595        0.6790743548
 H        -5.2967950494        1.7960215983        2.3108059826
 H        -5.3209803332        3.9566638197        3.7236315287
 H        -6.4118120764        5.2782212915        3.2981464459
 H        -5.0974450726        5.0923159174        2.4275274384
 H       -13.2193082106        5.7628495776        1.0484333152
 H       -11.9503515724        4.5651606773        1.5362204480
 H       -12.6374840091        4.5790429406       -0.0878177939
 H       -12.2728835971        7.1560834906       -1.5701482414
 H       -11.2997143049        8.2271081029       -0.5963419987
 H       -12.8005809781        7.7935694195       -0.0629301924
 H        -9.9968825793        8.1779269085        6.7244595419
 H       -11.3287828867        9.3426642460        6.9743208712
 H        -9.6311126334        9.8263431297        7.2523187176
 H        -9.7151640267       11.9156823855        5.5851941075
 H       -11.3544870943       11.4939691023        5.8460097472
 H       -10.7203268613       11.8472281864        4.3126676158
 Na       -8.9928287607        3.3511529145       -2.3336320505
