117

 C        -6.7711537607       -5.0505588946        4.7576591037
 C        -6.5516431904       -5.1463545050        3.2933344250
 O        -5.9210302071       -6.0651503598        2.8309831761
 C        -7.2884576657       -4.1132743575        2.4473912718
 C        -8.9051890343       -4.2784350859        2.8554159629
 O        -9.2195585037       -5.1621781255        3.6021370589
 C        -9.7030203362       -3.1655527204        2.1660816555
 C       -11.2144283244       -3.2559961955        2.2277412384
 C       -11.9856774307       -1.8805042581        2.3071896185
 O       -12.4488312832       -1.4900967425        1.2723058500
 C       -11.8709310503       -1.0286716921        3.5328371284
 C       -10.5781700068       -0.0558334235        3.2093396032
 O        -9.4561303747       -0.4320730792        3.4909952380
 C       -10.8281069337        1.2936707084        2.4503405657
 C        -9.5420527048        1.6905709454        1.7124420396
 C        -9.8509726681        2.5424607626        0.4331257121
 O        -9.6988661319        3.7666240515        0.4201027408
 C       -10.3107000372        1.8665975948       -0.8260086277
 C       -11.8429463833        2.0603786286       -1.0145792465
 O       -12.5428812468        1.8256721844       -0.0443786938
 C       -12.5082637648        2.4118780900       -2.4126444406
 C       -13.1749136282        3.8132607544       -2.5211678503
 C       -12.3855240797        4.9855303679       -2.0923710553
 O       -11.4221397524        4.7659876250       -1.3735358972
 C       -12.9322630191        6.4272985737       -2.3926058058
 C       -11.7646389865        7.4492640982       -2.7847238782
 O       -10.8301228351        7.5338110197       -2.0234118891
 C       -11.6846133094        8.1290318606       -4.0503897664
 C       -10.5026984075        9.1779884078       -4.1240644243
 C       -10.6322407710       10.4193482258       -3.2492674674
 O       -11.6837205442       10.8879987806       -2.8693397727
 C        -9.2788897024       11.2592156227       -3.1247749095
 C        -8.4577344310       10.4195369766       -2.0681047822
 O        -7.8947201328        9.3704434785       -2.3262764633
 C        -8.4738492696       10.9506778080       -0.6823735437
 C        -7.6091944865       10.1196951627        0.2835789051
 C        -7.9292228173        8.5846837265        0.1792398603
 O        -9.0502247217        8.1461755679        0.2454581238
 C        -6.7831293195        7.5508014276        0.2341907999
 C        -6.7611605793        6.8921958722       -1.1409436464
 O        -7.5522604266        5.9676233384       -1.3703987416
 C        -5.7037094267        7.2449524764       -2.1027852283
 C        -5.4826830982        8.1653852034        0.6299957989
 C        -7.2137786120        6.5084855582        1.3709145585
 C        -8.5543198833       11.4186399169       -4.5794069369
 C        -9.5379309066       12.7458410536       -2.6146472694
 C       -14.0520334142        6.4971146097       -3.5279751101
 C       -13.5013805550        6.8452268917       -0.9904699633
 C        -9.3853821725        2.4511846380       -1.9420145700
 C       -10.0184167766        0.3188212047       -0.7310377107
 C       -13.1039989674       -0.1066872166        3.8308536893
 C       -11.5432434948       -1.9072644176        4.7015207662
 C        -6.8194630333       -2.6088351326        2.7227320989
 C        -7.1606299057       -4.5743546572        1.0037902478
 H        -5.8252772049       -5.3694513610        5.2748028358
 H        -7.5782703102       -5.7545284803        4.8967633142
 H        -7.0960074387       -4.0432147522        5.1167835746
 H        -9.4359654486       -3.0550387621        1.1876889669
 H        -9.5120158206       -2.3259991770        2.9210801078
 H       -11.5835710670       -3.8807229231        3.0750996321
 H       -11.6171895083       -3.7986118375        1.3198317839
 H       -11.1122693004        2.0281988006        3.2453404048
 H       -11.6575536290        1.1079280760        1.6933286395
 H        -9.0276264496        0.7943312434        1.4032029909
 H        -8.9029450982        2.2666371941        2.3507487196
 H       -13.2395080116        1.6255647040       -2.4559842366
 H       -11.6271756839        2.3551800192       -3.1139140737
 H       -14.0394791708        3.7392185705       -1.8975819073
 H       -13.5899246333        3.9133194142       -3.5495595765
 H       -12.6413321286        8.6728478622       -4.3339722917
 H       -11.5355948807        7.3186409558       -4.8659104927
 H       -10.5035040025        9.4894457019       -5.1476884987
 H        -9.4705139433        8.6956368247       -3.8797281418
 H        -9.5330844771       11.0229487087       -0.3292877728
 H        -8.0635782904       11.9567421659       -0.6108890448
 H        -7.7725364587       10.3201268989        1.3912575422
 H        -6.5541689777       10.3512125273        0.1338068154
 H        -5.9353249288        8.1780784232       -2.5642558375
 H        -5.3784240425        6.4670454039       -2.8039381029
 H        -4.8433874062        7.4468597007       -1.4486664243
 H        -5.6804830374        8.5979083562        1.6208647933
 H        -5.0550547381        8.9429717751       -0.0126071633
 H        -4.7636354631        7.3957022819        0.7505610214
 H        -6.5036428269        6.6905424173        2.1813127509
 H        -6.9635993133        5.4931969866        1.0611463921
 H        -8.2827919917        6.4855655931        1.5936368084
 H        -7.4914836337       11.5393017385       -4.5802264473
 H        -8.9755331076       12.3081086799       -5.0247006973
 H        -8.6033977826       10.4876993349       -5.2004950683
 H        -8.4957865683       13.1254158290       -2.3767111689
 H       -10.2505383244       12.7906621486       -1.8494522465
 H       -10.0410873912       13.2165076598       -3.4795493555
 H       -14.7999609392        5.7616294152       -3.2498321296
 H       -13.6017980405        6.1250545420       -4.4446350640
 H       -14.3504383955        7.4885576436       -3.7324996610
 H       -14.3861705284        6.3622635680       -0.7265737707
 H       -13.4902508775        7.9428613256       -0.9954488730
 H       -12.7665294926        6.6464314843       -0.2420972047
 H        -9.2641548304        1.6711458482       -2.7247552500
 H        -8.4625192644        2.6859290629       -1.6329580273
 H        -9.6688175894        3.3593341334       -2.4864396454
 H       -10.6193175439       -0.1411395211        0.0380383583
 H        -8.9907200346        0.2134014200       -0.4202802615
 H       -10.0923411930       -0.1200104980       -1.7401789952
 H       -13.8530874806       -0.7977567658        4.2507030228
 H       -13.5280181730        0.3529889067        2.9555452857
 H       -12.8724656987        0.6845858583        4.6002689191
 H       -12.3422733037       -2.6703994772        4.8481322102
 H       -11.5699002121       -1.3879124507        5.6917498654
 H       -10.6276548984       -2.5004509557        4.5361473596
 H        -7.1647985403       -2.1789162228        3.6666751823
 H        -7.2409299728       -1.8763787380        1.9470945651
 H        -5.7109531730       -2.6345778149        2.6721243531
 H        -7.3218002848       -5.6157341499        0.9628281440
 H        -6.1790570941       -4.3978920565        0.6378696618
 H        -7.8829736246       -4.0798041444        0.4140431595
 Na       -9.6680665199        6.0755082390       -0.5726374300
