117

 C       -11.1440844379        0.5376004885        8.2500651224
 C       -11.2778983670       -0.4741932429        7.1163224420
 O       -11.5848523221       -0.0431718705        6.0146312299
 C       -10.8706528153       -1.9077437983        7.2943702689
 C       -10.1252161662       -2.4041770378        5.9707124209
 O       -10.5815945820       -3.1437272076        5.1538380105
 C        -8.6516861489       -1.8421054263        5.7993634682
 C        -8.4818070186       -1.5859880016        4.3380141122
 C        -7.0375603074       -1.2457464204        3.9179089916
 O        -6.1037919071       -1.6554251878        4.6065511938
 C        -6.7775652030       -0.3779549575        2.5563024212
 C        -7.2247764955        1.1188339651        2.7949190064
 O        -7.7230922887        1.5549913640        3.7823873993
 C        -6.9384020589        2.1636486360        1.5609858522
 C        -6.8753724865        3.6275373111        2.0638791255
 C        -8.0098815434        4.4992619759        1.5199199084
 O        -7.7749612052        5.0805192034        0.4664322927
 C        -9.3228329754        4.9242203424        2.5502504641
 C       -10.4737016510        4.8120429297        1.4837129485
 O       -10.6364192313        5.7150623296        0.7039776125
 C       -11.1104371388        3.4375598870        1.3429722754
 C       -11.9673872920        3.4522349755        0.0923242046
 C       -11.1990436056        2.7850174216       -1.0526121203
 O       -10.2082169253        2.1613873465       -0.8591103060
 C       -11.8177401173        2.8712541883       -2.4830634104
 C       -10.5890509497        3.5632018324       -3.4032566455
 O        -9.8460018240        4.3928868903       -2.8746555613
 C       -10.3660664117        3.0782478150       -4.8294717702
 C        -9.9611710649        4.1986561946       -5.7475978664
 C       -11.1023562258        5.2073470520       -5.9658873767
 O       -12.1539674962        5.0452725498       -5.4129820167
 C       -11.0104950922        6.3154387568       -7.2673363940
 C       -10.6955087958        7.6054301732       -6.4563821214
 O        -9.5653655552        8.0696292427       -6.5829045050
 C       -11.7885119957        8.2536237778       -5.5077598124
 C       -11.0946815232        9.2345604394       -4.5545289826
 C       -10.6826934101        8.5269560174       -3.2297522077
 O       -10.9161796409        7.3353523585       -3.0407796620
 C        -9.7216818002        9.2350913303       -2.1947887003
 C        -8.2697410009        8.8165764453       -2.7528183360
 O        -7.9562391572        7.6506386643       -2.6183678082
 C        -7.3456661800        9.6991723198       -3.5775680614
 C       -10.1418724426       10.6962369705       -2.1647983001
 C        -9.9308663461        8.6590225453       -0.7638170006
 C        -9.7388477724        6.1219066985       -8.1635598269
 C       -12.3118920850        6.3413703737       -7.9273238069
 C       -12.1738942731        1.4213081572       -2.8625642194
 C       -13.0760025969        3.7698675596       -2.7290088969
 C        -9.6678322896        4.0944044411        3.7148246281
 C        -9.0499773199        6.4037772442        3.0299556099
 C        -5.2718395509       -0.4716452499        2.1133204487
 C        -7.6135901135       -1.0336520630        1.4591342602
 C        -9.8368172588       -2.2150722317        8.4432797895
 C       -12.2078088920       -2.7203700654        7.5306417346
 H       -12.0875571803        0.5331750421        8.7270568265
 H       -10.9954949875        1.4940539924        7.8646757284
 H       -10.3340609932        0.1978421988        8.8622131864
 H        -7.8871801036       -2.6005865442        6.2525792671
 H        -8.5159315501       -0.8701077222        6.3326848592
 H        -9.1603797535       -0.7754163824        3.9451458830
 H        -8.8842552079       -2.3680416611        3.6759558616
 H        -7.7692664466        1.9922627405        0.8378804718
 H        -5.9798039349        1.8715477017        1.1023628734
 H        -5.9720135101        4.1465560798        1.7152875275
 H        -6.8540556373        3.5530952046        3.2181720490
 H       -11.8498104724        3.1507440679        2.1984913966
 H       -10.2500861202        2.7970718689        1.0833089698
 H       -12.0959000682        4.5415385703       -0.0729158695
 H       -13.0040029922        3.0083921788        0.2934033620
 H       -11.2135797833        2.5535208815       -5.0881640987
 H        -9.5935669684        2.3439567541       -4.8829671984
 H        -9.5407078739        3.8035950768       -6.6390648116
 H        -9.0748493614        4.6366514482       -5.3586236575
 H       -12.3450819709        7.4953078511       -4.9771589941
 H       -12.5413961142        8.7548217561       -6.0269000104
 H       -11.5525615947       10.1755815523       -4.3636665953
 H       -10.1687241135        9.5153996160       -5.0311881939
 H        -6.7852901553       10.4514908582       -2.9709948663
 H        -7.9006777997       10.3317325051       -4.3080825396
 H        -6.6049232433        9.0295064492       -4.0067369781
 H       -11.1484620762       10.8163787110       -1.7884011622
 H        -9.9481713853       11.0714016382       -3.0843573964
 H        -9.3561728210       11.2563628142       -1.5908673817
 H       -11.0180175208        8.3982048521       -0.5966621298
 H        -9.5315375297        9.4457087534       -0.0923929843
 H        -9.3304756849        7.8112958380       -0.4938019734
 H        -9.9509920984        5.2891887987       -8.8570594406
 H        -8.9022363227        5.8150267837       -7.5526466490
 H        -9.5560221116        7.0969561379       -8.6827066778
 H       -12.5961152972        5.3916768354       -8.2822392145
 H       -12.2584309915        6.9534619937       -8.8105008674
 H       -13.0942973233        6.6029246532       -7.2261509532
 H       -12.0947330923        0.7886845763       -1.9653228007
 H       -11.4591604621        0.9406771218       -3.5444139005
 H       -13.1708073069        1.3762037367       -3.3056902294
 H       -12.8589079837        4.7841917756       -2.4347436908
 H       -13.9073793489        3.1871219074       -2.2660795065
 H       -13.2258452756        3.7600445168       -3.8914873041
 H        -9.7743433580        3.1222564477        3.3038620477
 H       -10.5607721187        4.4949070562        4.1146404324
 H        -8.8130095213        4.1603511769        4.4766251214
 H        -8.8786843582        7.1233235303        2.2226632274
 H        -8.2066406679        6.4739068169        3.7764054684
 H        -9.9633476936        6.6686184466        3.5838386237
 H        -4.9270023811       -1.5296694460        1.9637793309
 H        -4.6456039291        0.0281963363        2.8315789347
 H        -5.2453708947        0.0722917196        1.1910269740
 H        -8.6455306358       -0.7373165149        1.4327259682
 H        -7.7909295670       -2.1353461878        1.5408209911
 H        -7.2395914722       -0.8760638471        0.4537223042
 H        -8.9028959763       -1.6666134044        8.3829418440
 H        -9.5103262236       -3.2314387617        8.4465231361
 H       -10.2087229699       -1.9566002420        9.4332385959
 H       -12.8362458794       -2.6984512414        6.6757108768
 H       -12.7403764839       -2.4359037509        8.4037414200
 H       -11.9759923630       -3.7742516538        7.6625961668
 Na       -9.3305247227        6.2325923262       -1.3701004742
