117

 C        -7.3343994518        9.5046638202        5.4403661587
 C        -8.5525036088        9.5084608179        4.5470076923
 O        -8.5105523233        9.4184216942        3.3752786388
 C       -10.0837071897        9.7119496848        5.1893734713
 C       -11.0679211017        9.1331651006        4.1675100998
 O       -11.9335760713        9.7403260316        3.6955320037
 C       -11.1893333765        7.6235698905        4.1449910306
 C       -11.6509525225        6.8851640613        2.8404911669
 C       -10.9589129508        7.1740046279        1.4877925275
 O       -10.0551332358        7.9722554497        1.4041506603
 C       -11.3784423398        6.4200410294        0.1707623049
 C       -10.0692412754        5.8355205421       -0.5360667033
 O       -10.1151748073        4.7363646568       -1.1167090083
 C        -8.5480349630        6.3675019777       -0.5202720037
 C        -7.8363747551        5.7350634197        0.7202383017
 C        -7.2802822250        4.2445859325        0.5988348545
 O        -7.2820768069        3.6265095528       -0.4339255006
 C        -6.6837058910        3.7261680040        1.9039274013
 C        -8.0985405229        3.2342323607        2.7557401557
 O        -8.3567179347        3.7414162231        3.8101132812
 C        -8.7895860964        2.0362675977        2.2231260235
 C        -9.2931652807        1.0322889024        3.2844098796
 C       -10.0772813922       -0.0138784198        2.2755549054
 O       -10.7860636779        0.5562998828        1.4340642977
 C        -9.7013386060       -1.4675753204        2.2345520475
 C       -10.3348000839       -1.9132036914        0.7967673275
 O        -9.5248180321       -2.4323418319        0.0870527391
 C       -11.8860536968       -2.0847733662        0.5198879306
 C       -12.6984155779       -1.0090523487       -0.1643727268
 C       -12.4292986931       -1.0689587868       -1.7402563918
 O       -12.1729707548       -2.0646902851       -2.2954682317
 C       -12.6019484808        0.1906151887       -2.6223688058
 C       -11.1182727727        0.6095851255       -3.0200632679
 O       -10.3737082705        1.4813072097       -2.5388487627
 C       -10.4300202022       -0.2497375690       -4.1592028329
 C        -9.7126432257        0.5852001429       -5.1472635880
 C        -8.5860643981        1.3788239111       -4.5197793679
 O        -8.1943443568        1.1915824069       -3.3520985820
 C        -8.0373314008        2.7206935592       -5.4541316744
 C        -6.8211485505        3.5558912707       -4.7246375936
 O        -7.0614085769        4.2534326226       -3.7297948055
 C        -5.3660455484        3.2347671954       -5.0984783430
 C        -7.5164986395        2.1572537101       -6.8100264864
 C        -9.0937016479        3.7785748413       -5.7276023045
 C       -13.6567942098       -0.1390980227       -3.7480788444
 C       -13.4371409980        1.3947338252       -1.8871662937
 C        -8.2362501362       -1.5842111326        2.1496991416
 C       -10.2106197169       -2.2462508686        3.4158558677
 C        -5.8045787479        2.4161329675        1.6727618508
 C        -5.9309190691        4.6944548619        2.8067373684
 C       -12.2837345762        5.1035607028        0.5594295958
 C       -12.2162119187        7.3373391363       -0.8308751077
 C       -10.0982638263        9.0884735363        6.6548856704
 C       -10.2859093667       11.2178157829        5.3228930782
 H        -7.1599899244       10.4270913850        6.0567215483
 H        -6.3699524621        9.2763625794        4.9451984674
 H        -7.2473499250        8.8487239632        6.3533773131
 H       -11.6923406614        7.4551587564        5.0152629933
 H       -10.1723540453        7.4025207740        4.3274881941
 H       -12.7524197810        6.9521974042        2.9842551645
 H       -11.3347871566        5.8215466781        3.2199063488
 H        -8.3674366845        7.4219317559       -0.3735239685
 H        -8.0336355120        5.9261885616       -1.4555913269
 H        -8.5110365170        5.6406563622        1.5848738755
 H        -7.0353951918        6.3849797546        1.0551271181
 H        -8.3262820618        1.7288098844        1.3171377473
 H        -9.7602240063        2.4974903155        1.8240191261
 H       -10.0730997277        1.5365788526        3.8994802037
 H        -8.3991086487        0.4938221669        3.7778977789
 H       -12.4474086453       -2.2129159639        1.4375284656
 H       -11.9256009168       -3.0871992450        0.0774596744
 H       -12.4390094252       -0.1053246110        0.3365703850
 H       -13.7145214562       -1.4099747810       -0.1185556574
 H       -11.1687315326       -0.7391973175       -4.7643751217
 H        -9.6693402289       -1.0506913406       -3.8141534549
 H       -10.4749917541        1.2708906168       -5.5694024088
 H        -9.2622881135        0.0250901895       -5.9760975379
 H        -4.9245594106        4.0055875768       -5.6769095123
 H        -5.2812881404        2.3411609587       -5.7276635051
 H        -4.7638045035        3.1339889671       -4.1596957327
 H        -6.8684988901        2.8055061505       -7.3893196346
 H        -8.4490246794        1.8250740712       -7.2161084945
 H        -6.8889451036        1.3343324080       -6.6574348351
 H        -9.7834765088        3.5130417073       -6.5611083257
 H        -8.6944324227        4.7361628724       -5.9323407654
 H        -9.6312014374        3.8895692072       -4.7528901081
 H       -13.8118577605        0.7694733472       -4.3162335016
 H       -14.5668622028       -0.5164748625       -3.3424006621
 H       -13.1940975567       -0.9370130544       -4.2462224785
 H       -13.8051169295        2.1828648654       -2.5571554171
 H       -12.7789482322        1.8258824701       -1.1019337651
 H       -14.2313640226        0.8901278256       -1.4496107381
 H        -7.6765465091       -1.1377181345        3.0487969159
 H        -7.7131355167       -1.0362871810        1.3062393371
 H        -8.1755775826       -2.5738512442        2.2004264709
 H        -9.9853043413       -3.3359814775        3.4814560071
 H       -11.2724045277       -2.0885416918        3.6362656198
 H        -9.6539243372       -1.8251899006        4.3796231648
 H        -5.2223154770        2.3484909139        0.6831530851
 H        -6.4524272365        1.5341974300        1.5993595562
 H        -5.3388731315        2.3099537474        2.6626351673
 H        -6.0494514540        4.3316541547        3.8117834154
 H        -6.3148400593        5.6968822360        2.8191440964
 H        -4.8455745289        4.7497835034        2.7097568852
 H       -13.1075215255        5.3352196250        1.1508373305
 H       -11.7034287891        4.3199742089        1.1127478206
 H       -12.6829407791        4.6037209346       -0.3377865377
 H       -12.6637301807        6.7491796213       -1.6572763954
 H       -11.5088360634        8.1273712235       -1.3085810469
 H       -13.0758227425        7.9010612143       -0.4482598537
 H        -9.8463185325        8.0103049066        6.6265771229
 H       -11.0472587768        9.1114138791        7.0984009916
 H        -9.4230256637        9.5794624668        7.3563838276
 H        -9.5700158988       11.8574140033        5.9292504381
 H       -11.3215421419       11.3805185805        5.7621374289
 H       -10.3721094186       11.8598402560        4.3854996042
 Na       -8.5645150345        3.2115820954       -1.8688595596
