117

 C        -7.2606977998        9.7780720317        5.2804208635
 C        -8.4824573854        9.6464592035        4.3946750121
 O        -8.3438293576        9.6202798301        3.1829890426
 C        -9.9261302517        9.7607085034        5.1119131807
 C       -10.9951536717        9.1348899329        4.1773507055
 O       -11.4012613395        9.8114037087        3.2625415542
 C       -10.9907104707        7.5626761756        3.9018020253
 C       -11.8257069005        6.8377631491        2.6847537946
 C       -10.9204443373        7.0771154741        1.4880548005
 O        -9.9866896589        7.8359320254        1.4499909027
 C       -11.2981291405        6.1844887260        0.0381778679
 C        -9.9400179627        5.5990762979       -0.5206693892
 O       -10.0003846721        4.5500834160       -1.1107790366
 C        -8.6653905978        6.4216945986       -0.5289476946
 C        -7.7319691634        5.9948229188        0.6723394891
 C        -7.3252771168        4.4609830781        0.7800110832
 O        -7.1859007544        3.7487779986       -0.2076999328
 C        -6.6970556630        3.9744778113        2.1492239745
 C        -7.8882165232        3.4332929680        3.1161491748
 O        -8.2843156667        4.0137903686        4.0896404709
 C        -8.7841017818        2.2766471843        2.4595827904
 C        -9.3447748854        1.0745548758        3.2337366666
 C       -10.1332289874        0.2104273197        2.2103621311
 O       -10.9019190576        0.6843379546        1.4103005985
 C        -9.9839815395       -1.4329622607        2.2564370348
 C       -10.4965346229       -2.0741403989        0.8759040607
 O        -9.7452627022       -2.2884849835       -0.0752436956
 C       -12.0036683236       -2.3689238235        0.6599611933
 C       -12.4922420843       -1.0871112952       -0.1493107360
 C       -12.4351971911       -1.2315305468       -1.6546807628
 O       -12.0892097951       -2.2563198977       -2.2244351321
 C       -12.7139588697        0.1278245785       -2.5205164302
 C       -11.3426303389        0.6575323341       -2.9341942621
 O       -11.0305285723        1.7831785377       -2.6541925620
 C       -10.4615649333       -0.2629453774       -3.7353224534
 C        -9.7537335086        0.4706336247       -4.9278494569
 C        -8.6560928494        1.4572802278       -4.5255540910
 O        -8.0201659370        1.1791041251       -3.5600439111
 C        -8.1236300731        2.4705007298       -5.5102450065
 C        -7.0471942242        3.2430056739       -4.6222362271
 O        -7.3581677991        3.9639447074       -3.7060710266
 C        -5.5576611094        3.0867267929       -4.8764074143
 C        -7.5655272977        1.6827916847       -6.7158271381
 C        -9.0042520057        3.6414642978       -5.9271706546
 C       -13.4319958551       -0.1323616531       -4.0385053628
 C       -13.3581346394        1.3456364334       -1.6411127750
 C        -8.4180825510       -1.7780193245        2.3010459472
 C       -10.7520809765       -1.8800162943        3.5096145828
 C        -5.7667651797        2.8198159086        1.8495840816
 C        -5.8886526910        5.0107610599        2.8565994712
 C       -12.3381842419        5.0771194929        0.2923719786
 C       -11.9671564800        7.2091980339       -0.8650919429
 C       -10.0112531202        8.9013876487        6.5107996532
 C        -9.9753020200       11.3087766745        5.4351452332
 H        -7.0498593695       10.6567886944        5.7552950291
 H        -6.3895418483        9.5236102685        4.7401349247
 H        -7.2071439633        9.1675649876        6.1460622818
 H       -11.0711040300        7.0766060832        4.9716603351
 H        -9.8612037086        7.4315200902        3.6778014285
 H       -12.7734018719        7.2991306004        2.4890420818
 H       -11.9351899795        5.9318251284        3.0653878743
 H        -8.9402663209        7.4889497351       -0.3509205578
 H        -8.1362960671        6.2156514158       -1.4065897470
 H        -8.0474777135        6.3556495046        1.6643395803
 H        -6.7077380441        6.3530104801        0.4384341771
 H        -8.2422794103        2.0209191049        1.5243514044
 H        -9.6009873504        2.8410910063        2.0639551973
 H       -10.2237781662        1.4122904607        3.7843629403
 H        -8.6713863336        0.5353332717        3.7870023395
 H       -12.7113932516       -2.6405689492        1.5177020874
 H       -12.0554710422       -3.2169224445        0.0133248969
 H       -11.7345980812       -0.2900418432       -0.0490438379
 H       -13.5217601037       -0.8006874808        0.0335031712
 H       -10.9976323911       -1.2318389761       -3.8783178759
 H        -9.5856370159       -0.4278526723       -3.1445650456
 H       -10.4513645955        1.0795922376       -5.5742111437
 H        -9.1302875845       -0.1583065000       -5.6420467149
 H        -5.1572288549        3.8132558649       -5.6405703372
 H        -5.1914531842        2.1545035759       -5.1924208257
 H        -5.0682455400        3.3181396790       -3.9268662361
 H        -6.8186477579        2.2899694935       -7.1172425696
 H        -8.3064103973        1.2579747054       -7.3217128120
 H        -6.9659074971        0.8097253446       -6.3091121687
 H        -9.9887731697        3.3237278918       -6.4157183676
 H        -8.3835718094        4.2469790505       -6.6317874552
 H        -9.2453903387        4.2358076134       -5.0971072009
 H       -12.7806810606        0.4420139232       -4.7465146963
 H       -14.4634998778        0.2424270457       -4.0293819137
 H       -13.4197141503       -1.1957679813       -4.2531165223
 H       -13.1651758705        2.1640616727       -2.3320662341
 H       -12.7094004623        1.5086131851       -0.7901556621
 H       -14.4600092925        1.2665906843       -1.3898172258
 H        -7.9691378291       -1.3959703416        3.1741411943
 H        -7.9581286705       -1.2135512533        1.5628785179
 H        -8.1312179951       -2.9250894191        2.3194094462
 H       -10.0486633763       -2.4051297001        4.1558585657
 H       -11.5351984079       -2.6293072699        3.3200715999
 H       -11.1313044753       -1.1915829098        4.1530900385
 H        -5.0962093797        3.1631559813        1.0904031828
 H        -6.3521384144        1.9923323597        1.4545016333
 H        -5.3193129246        2.5015689709        2.7852545100
 H        -5.6304398888        4.5654440258        3.8859619420
 H        -6.4712117789        5.9458629613        3.1481578184
 H        -4.8616376540        5.2426769325        2.4870858508
 H       -13.4251627945        5.3258332087        0.6296722187
 H       -12.0362714130        4.3641993841        1.0485613577
 H       -12.3786809976        4.5588415856       -0.6606502568
 H       -12.2495290660        6.7596713660       -1.7873583512
 H       -11.3390826379        8.0487413051       -1.0885884795
 H       -12.9223885108        7.5643787963       -0.5496295303
 H        -9.8610221485        7.8597762964        6.4548212052
 H       -11.0318059057        8.9985083881        6.9348134074
 H        -9.3897827497        9.3034087225        7.2826542507
 H        -9.3730079251       11.6317089187        6.2721178604
 H       -10.9187972051       11.8241614514        5.6583288616
 H        -9.6655609902       11.8291782070        4.5561441119
 Na       -8.5065204188        2.9115286333       -2.2386000491
