117

 C        -6.9644099640       10.0283583697        5.2690005694
 C        -8.1664616495        9.8204429210        4.2442412836
 O        -7.7894905498        9.5250633823        3.1146216324
 C        -9.7175443154        9.6264746916        4.8576284469
 C       -10.6996254426        9.0615835506        3.7512410148
 O       -11.0233654233        9.8412215003        2.8488529961
 C       -11.1275746050        7.5287059064        3.7332762584
 C       -11.7763196206        7.0969548432        2.4309326834
 C       -10.6989409643        7.2458664130        1.3282720370
 O        -9.6032966803        7.7613360820        1.4472635455
 C       -11.1951602531        6.2088429001        0.0574665923
 C        -9.9588038063        5.3111316331       -0.4257348996
 O       -10.3013196161        4.2186513399       -0.8244610276
 C        -8.6127206131        5.9752837573       -0.6777064177
 C        -7.6734993420        6.0207122332        0.5972021997
 C        -7.1944741937        4.5988408436        0.9560209533
 O        -7.5202014366        3.7286632991        0.1754969092
 C        -6.6008843911        4.2793149644        2.3507662117
 C        -7.9721197706        3.6214991688        3.0085590949
 O        -8.1433782750        3.7576896662        4.1977773398
 C        -8.9197824017        2.5373191856        2.1436076660
 C        -8.9696833612        1.2745465985        2.8837818299
 C       -10.0460248226        0.4684764718        2.2477486454
 O       -10.9166946716        0.9366103530        1.5712487113
 C       -10.2330211832       -1.1072759195        2.3370406691
 C       -10.5857053004       -1.7119453639        1.0421774072
 O        -9.7543362844       -1.8874198006        0.1696081216
 C       -12.0081016364       -2.3390953426        0.6372601999
 C       -13.0509111295       -1.3993872918       -0.0756209299
 C       -12.7742227992       -1.1968068602       -1.6544124221
 O       -12.1661445085       -2.1766936649       -2.1386352340
 C       -12.9162142532        0.1283806914       -2.3984424831
 C       -11.4705800248        0.7052752903       -2.7922738243
 O       -11.1510719283        1.8575811975       -2.5492026500
 C       -10.4614473037       -0.3083969739       -3.3990170494
 C        -9.7067386265        0.2052157957       -4.7314726606
 C        -8.3830658593        1.1009597828       -4.4490093454
 O        -7.8281411040        1.0944434990       -3.3791045907
 C        -7.9609695006        2.1793600440       -5.6046940149
 C        -6.9896483591        3.1147996145       -4.7441079313
 O        -7.4633286761        3.8158934982       -3.9227723401
 C        -5.5205312544        2.9363147178       -5.0366654688
 C        -7.2244124505        1.4794673850       -6.8521647030
 C        -9.2336953603        2.9027672720       -6.0930865673
 C       -13.3504019147       -0.2011022488       -3.9868584114
 C       -13.6806466269        1.1949515232       -1.6502519153
 C        -8.8733387192       -1.7288812669        2.7051297505
 C       -11.3041652911       -1.3952080560        3.4081827668
 C        -5.5130888344        3.1711307666        2.1868592915
 C        -6.1594671696        5.5921398929        3.1599890408
 C       -12.1868427825        5.1495045523        0.3941163600
 C       -11.5094408816        7.0691395044       -1.1425098411
 C        -9.5231680006        8.7202083233        6.0077234919
 C       -10.4435305913       11.1242824742        5.2029803078
 H        -6.8893962487       10.7789623571        6.0971543917
 H        -5.9434253283       10.1724225900        4.7722761881
 H        -6.8575245306        9.1140967443        5.9055559331
 H       -11.6509780241        7.3788638857        4.7042323671
 H       -10.1793565116        7.0514015467        3.6906608137
 H       -12.6214930334        7.8117272990        2.2309449748
 H       -12.1848643864        6.0766475452        2.6012634513
 H        -8.8176084205        7.0377866103       -1.0208155737
 H        -8.0778576296        5.3194185498       -1.4099352212
 H        -8.0585532762        6.5208914895        1.4236887149
 H        -6.6829282937        6.4073050083        0.2504505285
 H        -8.5986436185        2.4976360339        1.0654076018
 H        -9.8795793828        3.0339173693        2.1392747812
 H        -9.2478821860        1.5672174710        3.9879688219
 H        -7.9761874623        0.7246134147        2.8940188574
 H       -12.4836528468       -2.6555842265        1.5384146051
 H       -11.9020855834       -3.2375594744        0.0070944574
 H       -12.8575933074       -0.3976140494        0.3245008185
 H       -14.0404870271       -1.8129333797        0.0773587744
 H       -10.9541542218       -1.3497656337       -3.6411838232
 H        -9.9524703790       -0.4274685128       -2.4516340874
 H       -10.3818012913        0.7521884907       -5.3775251342
 H        -9.5404618031       -0.7095768102       -5.4533264075
 H        -5.4704644288        2.6294936727       -6.1024476376
 H        -4.9829163041        2.1585586207       -4.4774099660
 H        -4.8791583818        3.7702382108       -4.9341489381
 H        -6.8534995416        2.2086328252       -7.5398791750
 H        -7.8196721170        0.6703453265       -7.3003522856
 H        -6.3961173088        0.8863862459       -6.4095940574
 H        -9.9779452319        2.3020150228       -6.6000022552
 H        -8.8186770095        3.6077934096       -6.8299801610
 H        -9.7546611563        3.3570408230       -5.2808632282
 H       -12.8351643451        0.3839927896       -4.6735291632
 H       -14.3577408030        0.0868366489       -3.9201758541
 H       -13.3766993762       -1.3108575483       -4.1280451622
 H       -14.0221836855        1.8054206714       -2.4332236652
 H       -13.0693535394        1.7067327253       -0.9689588745
 H       -14.5223460499        0.7437942651       -1.0218300056
 H        -8.2503393659       -1.3776528110        3.5233860161
 H        -8.3555447241       -1.7518593771        1.7498876514
 H        -8.9949310093       -2.9181564785        3.0088532277
 H       -11.4096974623       -0.5595274657        4.1523778031
 H       -11.0880024706       -2.3528590257        4.0253487218
 H       -12.3236993518       -1.4903828659        3.1331604535
 H        -4.5824307843        3.6774971715        2.2761523597
 H        -5.8453637269        2.7767297762        1.1760149637
 H        -5.5645255816        2.2727768847        2.8559145217
 H        -5.3626842548        5.5412492830        3.8876233824
 H        -6.9919921446        5.9593033844        3.7072526121
 H        -5.8277512226        6.2423939939        2.3823286767
 H       -13.1143928237        5.5944147588        0.8153654518
 H       -11.8720141007        4.5633938732        1.2158294526
 H       -12.4922424545        4.5389013840       -0.3965144020
 H       -11.7524979075        6.5088008741       -2.0997963886
 H       -10.7385748997        7.7640403183       -1.3483069608
 H       -12.4921162140        7.6660592049       -1.0802594397
 H        -8.8932121740        7.8717680013        5.7412042030
 H       -10.4573843978        8.2969151486        6.4765658159
 H        -9.0226414641        9.2522665617        6.8228387008
 H        -9.7742854098       11.6903600598        5.8997180409
 H       -11.3461525377       11.1794739252        5.8091654727
 H       -10.7728365544       11.6539178807        4.2906961766
 Na       -9.0182321127        2.9530170970       -2.0110135221
