117

 C        -7.1387141688       10.2093930053        5.2888264812
 C        -8.0676981304        9.7687377685        4.1966108180
 O        -7.7305504475        9.5430892905        3.0996495431
 C        -9.5448006202        9.6461094517        4.7156381840
 C       -10.5319392715        9.2282541788        3.6165513057
 O       -10.9833624065        9.7305807388        2.6510253008
 C       -11.1109506447        7.6821882775        3.8389340891
 C       -11.6926737506        7.1528273492        2.4566514285
 C       -10.7105149356        7.1878383841        1.3119909532
 O        -9.6845452690        7.7778799459        1.4468781958
 C       -11.1291354879        6.3518836971       -0.0281259880
 C        -9.9205269291        5.3452802230       -0.5513964241
 O       -10.1757357897        4.1469749348       -0.5855345015
 C        -8.5978481396        5.9116839419       -0.8611401259
 C        -7.5431250853        5.9798809502        0.3747094790
 C        -7.1652375295        4.5404726411        0.8409794679
 O        -7.3437180046        3.5233431678        0.1287185625
 C        -6.7678352101        4.3370277773        2.2541628418
 C        -7.9808996756        3.5011231733        3.1124450502
 O        -8.2395331954        3.6218645984        4.2667819714
 C        -8.8869373781        2.6338440210        2.3158687188
 C        -8.8905838436        1.1504661159        2.7434764314
 C       -10.1593059560        0.4677344994        2.1449708413
 O       -11.0195058287        1.1501086159        1.5639082707
 C       -10.3641363032       -1.0799267307        2.4716318579
 C       -10.6508574652       -1.7082762329        0.9486795460
 O        -9.7405379063       -1.5780166468        0.1549138542
 C       -12.0981183114       -2.3971007148        0.5541297807
 C       -13.0686487878       -1.3554801921        0.0090373853
 C       -12.7639672052       -1.3036244754       -1.5282365144
 O       -12.1642909674       -2.1891214775       -2.0502155096
 C       -13.0289605822        0.0577315229       -2.5029261352
 C       -11.4115317302        0.5621083154       -2.6560116673
 O       -11.3135697029        1.7321801501       -2.3872249626
 C       -10.4044251675       -0.4194194366       -3.3671570649
 C        -9.6061999726        0.1371950087       -4.5275861001
 C        -8.4067614480        0.9966568782       -4.3719560826
 O        -7.7999790840        1.0577114591       -3.3116208940
 C        -7.9590098631        1.9577221289       -5.5956898842
 C        -7.0107157422        3.0281180599       -4.9096918917
 O        -7.5379676330        3.7367276757       -4.0461338256
 C        -5.4788952912        3.0992897700       -5.0720703716
 C        -7.2786011100        1.2684097099       -6.7643322252
 C        -9.1144968439        2.8162434431       -6.0620140433
 C       -13.5199993109       -0.1130681730       -3.9513387280
 C       -13.6924110146        1.3422835049       -1.8272852575
 C        -8.9631886640       -1.7293093476        3.0564484097
 C       -11.3640859722       -1.0840781169        3.5806271489
 C        -5.4494038397        3.4041707511        2.2936167082
 C        -6.3025527396        5.5411839340        3.0699297797
 C       -12.3166768664        5.3674482211        0.3863313040
 C       -11.6782973592        7.1076754323       -1.3299417616
 C        -9.3986626790        8.6726889973        5.9580701833
 C       -10.1565881679       10.9388009530        5.1555016051
 H        -7.5297813807       10.8286927343        6.0088126398
 H        -6.3476644327       10.8176410462        4.8970034722
 H        -6.6618682565        9.4552478726        5.9490725578
 H       -12.0053870263        8.0030159928        4.4735922032
 H       -10.3512433930        6.9835602295        4.3600862702
 H       -12.4662224159        7.8557194286        2.3900122464
 H       -12.0992771984        6.1956246042        2.7100091713
 H        -8.8216994831        6.9994841476       -1.1790271093
 H        -8.1469887595        5.3194401630       -1.6381396159
 H        -8.0140660434        6.4023381068        1.3052269842
 H        -6.6467572872        6.5174590491        0.0731312482
 H        -8.3552401501        2.6647731516        1.3394572492
 H        -9.8418622656        3.1567491679        2.1459359404
 H        -8.9709793689        1.0010068502        3.8780845886
 H        -7.9603634678        0.7116758725        2.4049178111
 H       -12.5208818397       -3.0228886186        1.4355305377
 H       -11.9825373111       -3.0039561624       -0.2676440970
 H       -13.0024302889       -0.3739173459        0.4616656626
 H       -14.0314793157       -1.8175455508        0.0578359002
 H       -10.9482023371       -1.2676758865       -3.7963223165
 H        -9.9194609704       -0.7857214714       -2.4308630688
 H       -10.2209256188        0.3659770417       -5.5010599092
 H        -9.2026321912       -0.8434606269       -4.9295540131
 H        -5.0227672591        2.7883489488       -6.0303023081
 H        -5.0418012620        2.4933967583       -4.3612405412
 H        -5.0599652070        4.1340123207       -4.7950165743
 H        -6.9063362526        1.9633726330       -7.4484678898
 H        -7.9425068687        0.6620402499       -7.2818193654
 H        -6.5408917099        0.5743992787       -6.3612264129
 H        -9.7217349989        2.3419083496       -6.9526381368
 H        -8.8502933801        3.8171607174       -6.3266922327
 H        -9.7860618094        2.7382536223       -5.2957224429
 H       -13.1765863900        0.7131428901       -4.6424350860
 H       -14.5926828023       -0.1966786435       -3.9158674921
 H       -13.1975468989       -1.0501405205       -4.1597152026
 H       -13.8880800995        2.1427817441       -2.5628254558
 H       -13.1061212462        1.6481799078       -0.9533437382
 H       -14.5883109824        0.9460935091       -1.3570960449
 H        -8.6123697615       -1.2759115393        3.9967827108
 H        -8.1839000294       -1.6521186023        2.2509519054
 H        -8.9934935879       -2.7474843607        3.3410489032
 H       -11.2469810059       -0.1935809169        4.2811794273
 H       -11.3923999258       -1.9986541331        4.2041459245
 H       -12.4133058590       -0.9636319383        3.2860540857
 H        -4.5617965684        4.0752147383        2.4058478310
 H        -5.6002455144        2.7637877838        1.4500833140
 H        -5.5037676971        2.7015883426        3.1761762629
 H        -5.7744303937        5.0599919232        3.9548530031
 H        -7.1727349861        5.9231374840        3.6410373716
 H        -5.6029165478        6.2812055667        2.5819110973
 H       -13.1992591910        5.9755272934        0.7657055271
 H       -12.1609502526        4.6494480555        1.1666161910
 H       -12.7279813599        4.7802602580       -0.4369178761
 H       -12.0947010753        6.4619834780       -2.0859148767
 H       -10.9997451020        7.8428527738       -1.8635709495
 H       -12.5296313824        7.6671889626       -1.0708043943
 H        -8.7381124078        7.8530181832        5.8228764133
 H       -10.3733722564        8.3368532181        6.3621014698
 H        -8.9849238779        9.2365817127        6.7842120007
 H        -9.5071446506       11.3970904963        5.8009980506
 H       -10.9181247595       10.7118566182        5.9167538515
 H       -10.6696935767       11.5690873697        4.5480874346
 Na       -8.9319555487        2.9127203933       -2.0330723409
