117

 C        -7.0458421986       10.4799593643        5.2575312597
 C        -7.9341118048        9.9150043136        4.1341555381
 O        -7.6291766031        9.5336035759        2.9968753414
 C        -9.5222159053        9.6115715440        4.7052461604
 C       -10.4454868683        9.0503265710        3.4653682797
 O       -10.7674646301        9.8345050432        2.6519215325
 C       -11.1875536497        7.7120777342        3.7843472278
 C       -11.7962805229        7.1661709772        2.5054746794
 C       -10.7553996465        7.0601142290        1.3093429745
 O        -9.7038085105        7.6908254303        1.1724629207
 C       -11.1935800634        6.3182951290       -0.0357839549
 C        -9.9720252608        5.4554945366       -0.4915828282
 O       -10.0191532391        4.2405629450       -0.3964089076
 C        -8.5469575024        5.9699991040       -1.0200911779
 C        -7.5433462337        5.8374527971        0.1033049776
 C        -7.3063185740        4.4192027536        0.7325539807
 O        -7.0830242452        3.5327156709       -0.0985558457
 C        -6.8794690597        4.2037327666        2.4025657827
 C        -7.9163235856        3.4478490742        3.1275995707
 O        -8.0617222120        3.6857371416        4.3009840427
 C        -8.9226249467        2.5836408753        2.2868391681
 C        -8.8562091695        1.0547102402        2.5858908074
 C       -10.2490970086        0.4553595175        2.1326837452
 O       -11.0940820812        1.1620486987        1.5849418365
 C       -10.4471066409       -0.9578563569        2.5179972384
 C       -10.7074738796       -1.6302905179        1.0381989084
 O        -9.9134420428       -1.3846433575        0.1565697209
 C       -11.9682974909       -2.2759375442        0.7561456936
 C       -12.9657503285       -1.2578079922       -0.0871332889
 C       -12.6970224489       -1.2333062554       -1.5144113752
 O       -12.3377134013       -2.1795509324       -2.1495152084
 C       -12.8986079130        0.0493650487       -2.4609097705
 C       -11.4081264821        0.5845755572       -2.7254760630
 O       -10.9596718525        1.6359717199       -2.2957512451
 C       -10.3802912647       -0.4404600476       -3.2671023137
 C        -9.5861276731       -0.0442567476       -4.5068772011
 C        -8.4461796610        0.9659512330       -4.2573032327
 O        -7.8143367447        1.0404209074       -3.1959380328
 C        -7.9082385910        1.8257904753       -5.4277950383
 C        -6.9762532167        2.9147996206       -4.8119154837
 O        -7.5943871450        3.7306942907       -4.0647062601
 C        -5.5264420753        3.2494236312       -5.1389757832
 C        -7.2919978182        0.9424261817       -6.6231803698
 C        -9.1900346184        2.7531736660       -6.0914031693
 C       -13.6843098155       -0.2482455847       -3.7249667644
 C       -13.7930343066        1.2334509146       -1.8836991877
 C        -9.2700612488       -1.6593966103        3.1846608299
 C       -11.5116631529       -0.9507451535        3.6313413589
 C        -5.4490368765        3.4204763210        2.3676244398
 C        -6.5732563687        5.6290948469        3.0837137785
 C       -12.4870475515        5.5262780079        0.2840680906
 C       -11.6122698754        7.1772063052       -1.2145950123
 C        -9.4673168867        8.5964771256        5.8506654941
 C        -9.9698271317       10.9514672855        5.2083620439
 H        -7.5898530884       10.8443366854        6.1347945929
 H        -6.4589246384       11.3181890630        5.0589499022
 H        -6.4273972827        9.7802329807        5.7213587784
 H       -11.9245457019        8.0691394892        4.5513815642
 H       -10.3306393196        7.0720772550        4.1832328717
 H       -12.6593417429        7.7484948467        2.4193850305
 H       -11.9679884033        6.0511114912        2.7636613735
 H        -8.4878466979        6.9967050776       -1.2570250917
 H        -8.3098263517        5.3345627505       -1.8798026664
 H        -7.9101826437        6.4404306091        0.9944229802
 H        -6.5744454166        6.1710879011       -0.2370535237
 H        -8.8994882034        2.9079188013        1.2850394922
 H        -9.9240106713        2.9399974926        2.6744956694
 H        -8.8038549597        0.9253109953        3.6111005575
 H        -8.0231650091        0.5114910440        2.1797549164
 H       -12.4749403183       -2.6074384455        1.6908715969
 H       -11.7333731613       -3.1361532234        0.0991522377
 H       -12.8898823536       -0.2555050195        0.3293651215
 H       -13.9595174369       -1.7404405915        0.0835146493
 H       -10.7320256360       -1.3937864905       -3.3806748551
 H        -9.7876595423       -0.4188750686       -2.3109501331
 H       -10.1644782945        0.3257378930       -5.4080207692
 H        -9.2584026559       -0.9558044926       -4.9329349314
 H        -5.1744430521        3.1255992206       -6.1320292698
 H        -4.8324936704        2.6663321787       -4.4839411600
 H        -5.3265362765        4.2755180762       -4.7995416024
 H        -7.0413133629        1.6120116476       -7.4574228746
 H        -8.1697526384        0.4898977148       -7.0898588642
 H        -6.6270927523        0.1948549330       -6.3925051081
 H        -9.4785950558        2.2547615054       -6.9681013017
 H        -9.0521524062        3.8063059050       -6.2982229122
 H       -10.1092269473        2.4699029777       -5.4507152916
 H       -13.7385803303        0.7451508039       -4.2303766337
 H       -14.6599619603       -0.7092618997       -3.5103327638
 H       -13.1099756153       -0.9954189262       -4.2785106075
 H       -13.7275449776        2.1864278817       -2.5108928835
 H       -13.6693979557        1.4430759985       -0.7790100396
 H       -14.7469887595        0.7946300152       -1.9197372885
 H        -9.3159880333       -1.2400732306        4.1731401821
 H        -8.2509331419       -1.6357587188        2.8016082658
 H        -9.4146116293       -2.6489334886        3.3760207592
 H       -11.2726626730       -0.3346669628        4.4721689513
 H       -11.8658637590       -1.8486843874        4.0059143591
 H       -12.4386130776       -0.4548989839        3.1928252301
 H        -4.6910564807        4.1883181289        2.0579417244
 H        -5.6045959739        2.5097930836        1.8628283127
 H        -5.2200291607        3.1959090969        3.3917198369
 H        -6.4673939615        5.4987736831        4.1928030906
 H        -7.5755368242        6.1748060150        3.0856534382
 H        -5.6362361649        6.1495550709        2.6682249223
 H       -13.2706579402        6.2040693686        0.5385689042
 H       -12.4681660697        4.7352864311        1.1085705774
 H       -12.9002869904        4.9019735317       -0.5725613033
 H       -12.0517042549        6.6795455435       -2.0169617624
 H       -10.8283635417        7.8212306475       -1.6304508137
 H       -12.3426393556        7.8428063359       -0.8487330875
 H        -8.9349429999        7.6510904759        5.6917710173
 H       -10.4274813238        8.4249917012        6.2074497216
 H        -8.9650049593        9.0361391358        6.7123337922
 H        -9.2758570071       11.4232079033        5.8708494606
 H       -10.8593238976       10.9993382949        5.8113725675
 H       -10.2877044693       11.7216712154        4.4575872860
 Na       -8.7932513670        2.8169220855       -2.0773140198
