117

 C        -6.9568011231       10.7492209667        4.8331386791
 C        -7.8337443414        9.9408207714        4.0733588806
 O        -7.4745309367        9.4105192210        3.0412640201
 C        -9.2735218667        9.7421235882        4.6226870436
 C       -10.1743332526        9.2252984893        3.3965843246
 O       -10.3304237847        9.9377345214        2.4950659087
 C       -10.7829633262        7.8060410784        3.5539264460
 C       -11.6344938747        7.5034063750        2.3081795474
 C       -10.7942295326        7.0720291272        1.1787235103
 O        -9.5978629253        7.3732090494        1.2552310840
 C       -11.2038878153        6.2743061982       -0.1225154517
 C        -9.9858718513        5.3730889491       -0.5686221182
 O       -10.1389117935        4.1455452071       -0.5033395951
 C        -8.7180388284        5.8489284587       -1.1774169385
 C        -7.3607220527        5.7555292380       -0.3527422856
 C        -7.2870195338        4.5169550150        0.4899171688
 O        -7.1381045701        3.4000301163       -0.0577932060
 C        -6.9000944259        4.5525068089        2.0071798149
 C        -7.9777376343        3.6014972156        2.9038780730
 O        -7.6232860750        3.2997322161        4.0026399436
 C        -9.2570926313        2.8683793321        2.3430941666
 C        -9.0402352528        1.2981912868        2.4137989321
 C       -10.5090789117        0.6020056778        2.3254723147
 O       -11.4246852544        1.3171612013        1.8806042987
 C       -10.8052401417       -0.8519276543        2.6366889976
 C       -10.8996491006       -1.5667228983        1.2289799843
 O       -10.0228336623       -1.3791587684        0.4264883822
 C       -12.2267200771       -2.2457023168        0.8346170472
 C       -12.9983315146       -1.1284966971        0.1042834025
 C       -12.8795129098       -1.2887205404       -1.3785252251
 O       -12.6109648274       -2.3843100783       -1.7656674701
 C       -12.7376901058        0.0603031116       -2.3434612897
 C       -11.1910118722        0.3581547440       -2.5524399630
 O       -10.8616500984        1.4994729771       -2.3653234537
 C       -10.2910512657       -0.8210489297       -3.0346248709
 C        -9.6040746490       -0.3538685667       -4.2672623339
 C        -8.5577234698        0.7243393144       -4.0104725195
 O        -8.0768383478        0.8667030047       -2.8990916565
 C        -7.9771690509        1.7160047172       -5.1398700235
 C        -7.2053889600        2.8864979056       -4.7107907425
 O        -7.5032189657        3.5530808658       -3.6755019355
 C        -6.0203428091        3.2940564139       -5.6000434761
 C        -7.0037705350        0.7881408738       -5.9016845040
 C        -9.2176862347        2.1668208238       -6.1374441756
 C       -13.1730759722       -0.1194789205       -4.0003554995
 C       -13.3925218425        1.3467524570       -1.8236633476
 C        -9.8584091106       -1.6462737113        3.4311101798
 C       -12.1187699412       -0.8536946000        3.4635804021
 C        -5.5877674831        3.7966969803        2.2600319033
 C        -6.8062909287        5.9309019462        2.6151926099
 C       -12.5015688443        5.4315114264       -0.2948293045
 C       -11.4023138470        7.3111531297       -1.2022990993
 C        -9.1332864133        8.8271112530        5.8428849918
 C        -9.9159645722       11.0007839934        5.2036188803
 H        -6.6416532390       10.2086631203        5.7710113736
 H        -7.5321195736       11.6399377046        5.1570442852
 H        -5.9705142390       10.9607750511        4.3763009430
 H       -11.4514007042        7.9020403213        4.4250091731
 H       -10.0199554089        6.9509026400        3.7188997870
 H       -12.0778454052        8.4015082277        1.9260579896
 H       -12.3511462781        6.7976242896        2.6635268726
 H        -8.7371032713        6.9491174031       -1.4792322743
 H        -8.6872854461        5.3080539919       -2.1527821039
 H        -7.1818063683        6.5651304980        0.4223141484
 H        -6.5317191232        5.7216732309       -1.0278933210
 H        -9.3867512672        3.1877934866        1.3105162516
 H       -10.1458759150        3.0927875704        2.9735483827
 H        -8.6698600812        0.8579954053        3.4112719867
 H        -8.3098832849        0.8396501728        1.6861707136
 H       -12.6953908938       -2.6580285633        1.7875070824
 H       -11.9426029274       -2.9423891623        0.1364194243
 H       -12.6386883653       -0.1330474258        0.5229586479
 H       -14.0725197339       -1.1292858249        0.3310271629
 H       -11.0165148394       -1.5812233038       -3.1564604556
 H        -9.5287498387       -1.2257234490       -2.2599340182
 H       -10.2796438419        0.1946955559       -5.0737200846
 H        -9.2478097709       -1.1089070611       -5.0044448163
 H        -6.1986878249        3.5331182003       -6.6400800980
 H        -5.2583960098        2.5532250471       -5.5559478403
 H        -5.4818073904        4.2125287723       -5.2054554387
 H        -6.8934617027        1.1926842652       -6.9150659742
 H        -7.6208748575       -0.0401968692       -6.2265523275
 H        -6.0908668353        0.5422271238       -5.3895800569
 H        -9.7168409179        1.2468238362       -6.4578859788
 H        -8.8841522703        2.6682547032       -7.0152507820
 H        -9.9904246216        2.8224476964       -5.6572316380
 H       -13.1210520548        0.8926378727       -4.5042545479
 H       -14.1469811034       -0.5490372546       -4.1041035983
 H       -12.4475134221       -0.6770424187       -4.4689694449
 H       -13.2656462409        2.0515897316       -2.6455809564
 H       -12.7877012358        1.7013431644       -0.9715381572
 H       -14.3730031060        1.1942818824       -1.5161225163
 H        -9.5308231577       -1.2141549416        4.4454371883
 H        -8.9474380365       -2.1093424720        2.8934935822
 H       -10.3137906749       -2.5327748285        3.6041677501
 H       -11.9254420978       -0.3312382339        4.4356057049
 H       -12.3748373410       -1.8129976706        3.8842562936
 H       -13.1121050127       -0.5377279143        2.9887703765
 H        -4.8834378641        4.0640870937        1.3917214802
 H        -5.7655862643        2.7464917754        2.2907814829
 H        -5.1017931558        4.1897059647        3.1659037313
 H        -6.1502408208        5.8307094458        3.4301575988
 H        -7.7574968292        6.2637625987        2.9466312800
 H        -6.3848056916        6.6188995504        1.9261616975
 H       -13.4287613757        5.9139580363       -0.1425965717
 H       -12.4659791449        4.5033414767        0.2304473969
 H       -12.5563527050        5.1077001074       -1.3171147128
 H       -11.1821685154        6.8117429599       -2.1781744082
 H       -10.5958437037        8.1711630346       -1.1962494543
 H       -12.3079395595        7.8864934094       -1.1676099092
 H        -8.6971706475        7.8990919872        5.4380523367
 H       -10.1531960929        8.5827274245        6.2035400799
 H        -8.5080781345        9.0874642450        6.7078759506
 H        -9.5519704652       11.3188052289        6.1421915941
 H       -10.9961424816       10.7315660622        5.2867212082
 H       -10.0081310783       11.9168623915        4.6471551519
 Na       -8.4863515737        2.8676645899       -1.5807565744
