117

 C        -6.7075111109       11.0436050258        4.6667009952
 C        -7.7738546545       10.0506803498        4.0458883361
 O        -7.4106446834        9.3348369483        3.1647849893
 C        -9.1103916654        9.8048543228        4.5903766854
 C       -10.0484070554        9.2234466000        3.4190769645
 O       -10.3352308175        9.9280574301        2.4167967879
 C       -10.8317229019        7.8574260421        3.4591223560
 C       -11.5046531975        7.4673653337        2.0322358543
 C       -10.5355981395        6.9440585866        0.9675177515
 O        -9.4081443476        6.8423156977        1.2683886575
 C       -11.0021383137        6.3952276943       -0.3971054201
 C       -10.0378060184        5.3007982546       -0.9775251290
 O       -10.2728410756        4.1354940550       -0.7927363451
 C        -8.6298891257        5.7501772068       -1.4599180659
 C        -7.5037675821        5.6444263037       -0.4515974365
 C        -7.3790500340        4.4786848644        0.5241266243
 O        -7.4473202891        3.3993603215        0.0224796699
 C        -6.8543317032        4.5643557622        1.9386261551
 C        -7.7631814247        3.5851739052        2.8353877591
 O        -7.3958155274        3.2470212664        3.9255536187
 C        -9.1436985022        2.9346312278        2.2057120069
 C        -9.3987956458        1.5150375298        2.6191905387
 C       -10.7910362250        0.9160631866        2.4329436493
 O       -11.8026537992        1.4718492205        2.1106044857
 C       -10.9994663955       -0.6802925667        2.7556668426
 C       -11.0681207742       -1.4748270548        1.4163412656
 O       -10.0813821505       -1.7293390154        0.7413014497
 C       -12.4400381205       -2.1082242115        0.7632389845
 C       -13.3172280584       -1.1609181415       -0.0328824825
 C       -12.9468439753       -1.1711083882       -1.4629171095
 O       -12.8646336876       -2.2228171781       -2.1096657107
 C       -12.6422495250        0.1275647605       -2.2310702101
 C       -11.0660731304        0.2845989176       -2.3819321573
 O       -10.6261081703        1.4114654341       -2.2049344360
 C       -10.1565769259       -0.9513967059       -2.7827486953
 C        -9.3982329143       -0.6568327837       -4.0334749286
 C        -8.3964757476        0.6630023436       -3.8268804020
 O        -8.0483258611        0.8794198346       -2.6901429115
 C        -7.8831324973        1.5044218143       -5.0798227140
 C        -7.1970021318        2.7957439130       -4.6082939617
 O        -7.4670430553        3.2831788455       -3.5651669509
 C        -6.4946972133        3.7136022794       -5.5708331352
 C        -6.9771939905        0.4419686645       -5.8163271440
 C        -8.9652378813        1.8456716260       -6.0425475468
 C       -13.1169945178       -0.2474537945       -3.6554484947
 C       -13.3651594870        1.3726577964       -1.7547817128
 C        -9.8089821191       -1.1587583694        3.5919293185
 C       -12.2885118026       -0.7475160065        3.4872145325
 C        -5.2675500479        4.1394435563        1.9609806467
 C        -6.9962269570        5.9576263928        2.6162699673
 C       -12.2649078128        5.6965702802        0.0586205802
 C       -11.2934235952        7.5371746999       -1.5212681464
 C        -8.9855344772        8.7584896740        5.7195325026
 C        -9.8321263933       11.0990055914        5.0565475807
 H        -5.8060854290       10.6206701017        4.9301485741
 H        -6.9069756212       11.7521922807        5.4639836790
 H        -6.4601919267       11.6711334824        3.7806929875
 H       -11.7741893759        8.1054797671        4.0638272378
 H       -10.4490472387        6.9348563392        3.8775071972
 H       -12.0153807562        8.3107615348        1.4201595461
 H       -12.3211409950        6.7526916593        2.3458916758
 H        -8.6031929140        6.7935325754       -1.7208008875
 H        -8.3880362338        5.3659374201       -2.4247420631
 H        -7.3053044054        6.4596353891        0.1581660920
 H        -6.5461693034        5.4558489801       -1.0137927026
 H        -9.2350280160        3.0600799257        1.1054563277
 H        -9.9333057146        3.4871501762        2.6991843459
 H        -9.1609977520        1.2388454103        3.5903723136
 H        -8.8207366623        0.8035930813        2.1068007517
 H       -12.8926738974       -2.4073521270        1.6916889838
 H       -12.2634783984       -2.9991429836        0.0598996286
 H       -13.4583621811       -0.2162626528        0.4816497263
 H       -14.3637131453       -1.5120688017        0.0141461467
 H       -10.8803441308       -1.8388804661       -2.8592478712
 H        -9.5514821782       -1.1383093556       -1.9708915128
 H       -10.0235766090       -0.6121463291       -4.8228748330
 H        -8.7117708306       -1.4032029403       -4.4182952589
 H        -7.2513740195        3.8794374048       -6.3597082166
 H        -5.5970399351        3.4025759172       -6.0851853096
 H        -6.2788386104        4.6979048972       -5.2046931813
 H        -6.4663963890        0.8528652272       -6.6305993614
 H        -7.4853987117       -0.4457625659       -6.0882571291
 H        -6.2418108698        0.3476069035       -4.9990750743
 H        -9.7176452513        1.0065884103       -6.2017858770
 H        -8.5102052273        2.1395760769       -7.0095326067
 H        -9.4084270144        2.7099130024       -5.7296877238
 H       -12.4567613259        0.1289574569       -4.4101672322
 H       -14.0725209177        0.2738208466       -3.7473392184
 H       -13.1507500037       -1.3404635256       -3.8810961647
 H       -13.9444373989        1.9281093352       -2.5450731072
 H       -12.7005798814        2.0644312589       -1.2622010047
 H       -14.1417732933        0.9482951334       -1.0153427122
 H        -9.6742861658       -0.6549045904        4.4896296183
 H        -8.9457043053       -0.9331199479        3.0396958345
 H        -9.6201397408       -2.2720304566        3.6850994366
 H       -12.4127762930       -0.3144341058        4.4573173638
 H       -12.5159382330       -1.8596495520        3.6629438872
 H       -13.0538685896       -0.5439592681        2.8436510428
 H        -4.6233119127        4.9826458355        1.9684482426
 H        -5.0201275268        3.4717685739        1.0545813193
 H        -5.1744657854        3.6141575454        2.9362549882
 H        -6.8683990133        5.7378019157        3.7429606185
 H        -7.9878988945        6.3925102908        2.3243249006
 H        -6.1999345610        6.6654628655        2.2358507835
 H       -13.0874311228        6.4435075816        0.3726728351
 H       -11.9834736047        4.9707174036        0.8347602725
 H       -12.8453443882        5.1703037428       -0.7262909918
 H       -11.3933584970        7.0957278840       -2.4728813248
 H       -10.5574790669        8.2615450024       -1.6716025739
 H       -12.1731341596        8.0597480836       -1.1682126270
 H        -8.3999248249        7.9308144976        5.3191398366
 H        -9.9404376901        8.4075922255        6.1231167765
 H        -8.4136372398        9.1552956437        6.5448833089
 H        -9.1527314123       11.7667386586        5.6817036692
 H       -10.7791667305       10.9919181509        5.5936760621
 H        -9.9825332166       11.8342701081        4.2827292661
 Na       -8.7659012501        2.5957275230       -1.6686660037
