117

 C        -6.6512244605       11.1248981210        4.4439979262
 C        -7.6409414090       10.0377845306        4.0023610431
 O        -7.2389732126        9.3096275760        3.1487554003
 C        -9.1204710536        9.7946643449        4.5458259511
 C       -10.0527852885        9.2709701498        3.2350151356
 O       -10.2769671257       10.0854548597        2.4315329322
 C       -10.8274358905        7.9121088182        3.2501561471
 C       -11.4061931609        7.4924456777        1.9493099037
 C       -10.3441328633        7.0074841867        0.9410988875
 O        -9.2110028541        6.6489869698        1.2439094957
 C       -11.0401198280        6.4197086491       -0.3748266587
 C       -10.0485605612        5.3743027035       -0.8884354414
 O       -10.4035664425        4.1923962766       -0.9772077077
 C        -8.6191741371        5.6550373997       -1.4092441559
 C        -7.3679256932        5.7896222968       -0.4761305758
 C        -7.3082030548        4.4080999796        0.3458108185
 O        -7.5984738081        3.3028947217       -0.0785969719
 C        -6.8959180028        4.5196872773        1.8540519920
 C        -7.7287264799        3.4661780934        2.7082538961
 O        -7.3033071354        3.2152283950        3.8020182354
 C        -9.1766396539        3.1034596537        2.3086819647
 C        -9.3980459637        1.6591659167        2.7407797307
 C       -10.8715133857        0.9911010751        2.4606903271
 O       -11.7821106502        1.7383271928        2.1413481254
 C       -11.1914092895       -0.5451158238        2.7342225755
 C       -11.1643047210       -1.3930578207        1.4605515560
 O       -10.1182847315       -1.8199917431        1.0105023992
 C       -12.5389080280       -2.0603256150        0.7817591287
 C       -13.3486831718       -1.1370622206       -0.0242894225
 C       -12.9964518290       -1.2497367581       -1.4933527350
 O       -12.9649334671       -2.3038810659       -2.0478773405
 C       -12.6552855755        0.1066235669       -2.3017668235
 C       -11.0947315243        0.3400067944       -2.2908414646
 O       -10.7094927095        1.4546784476       -1.9971061625
 C       -10.1316602339       -0.8276845943       -2.6989795660
 C        -9.2015173939       -0.7114790406       -3.9021579700
 C        -8.2846845775        0.4668373342       -3.7909787818
 O        -7.7900223470        0.6822285239       -2.6951604504
 C        -7.8351864751        1.3600761718       -4.9593113157
 C        -7.3348135059        2.7689544093       -4.5734275050
 O        -7.4608548347        3.1985471035       -3.4171114706
 C        -6.7331350368        3.7301020503       -5.7027788155
 C        -6.7471819844        0.3428301204       -5.7204005402
 C        -9.0215883131        1.7502456456       -6.0547043838
 C       -13.1640837719       -0.2432083367       -3.8763110025
 C       -13.2345884845        1.3736432433       -1.5295591543
 C        -9.8440065961       -0.9847653888        3.5667280296
 C       -12.4173827192       -0.8614490067        3.5903956995
 C        -5.3765243173        4.2635774586        1.9414868862
 C        -6.9896723935        5.8483943181        2.7566726074
 C       -12.3412425800        5.6842728895       -0.0912665422
 C       -11.3023145327        7.5885816506       -1.4095037563
 C        -9.0603025138        8.7461595567        5.7588886806
 C        -9.8622993650       11.0385738948        4.9565709656
 H        -5.6029789548       10.8131594903        4.5654091919
 H        -6.8783685897       11.4586569823        5.4850233424
 H        -6.6675439058       12.0500724232        3.7808602729
 H       -11.6746708712        8.0644038773        3.8454468439
 H       -10.2901105533        7.1095003276        3.6892334130
 H       -11.9506680936        8.3828983670        1.4092427390
 H       -12.1479584982        6.6309731422        2.1179694020
 H        -8.6891923512        6.5927713263       -2.0390131543
 H        -8.4229006906        5.0265296865       -2.2218807683
 H        -7.4255382920        6.4711904792        0.3827630831
 H        -6.3960370118        5.9663730057       -0.9213960640
 H        -9.3537905508        3.2116681594        1.2119838569
 H        -9.7959203358        3.7708247101        2.8488302189
 H        -9.2630251305        1.4167205299        3.8304187263
 H        -8.6835535764        1.0232118800        2.3253472801
 H       -13.0996055316       -2.5484647830        1.6835996169
 H       -12.2901323374       -2.8025255206        0.0631512747
 H       -13.4350106751       -0.1051437775        0.4159169706
 H       -14.3944897979       -1.4023085481        0.1366353527
 H       -10.8038507483       -1.6481052957       -2.9928590941
 H        -9.6482056040       -1.1480842956       -1.7937334522
 H        -9.7228031656       -0.8086926850       -4.8434874865
 H        -8.5424537992       -1.5294184045       -3.9500869559
 H        -7.3909016348        4.0556669874       -6.5137244659
 H        -5.9079087111        3.3240119234       -6.1660256730
 H        -6.3303495133        4.7127790701       -5.2801430121
 H        -6.0699898352        0.9439896108       -6.3871588753
 H        -7.3580828047       -0.4152695991       -6.2525740751
 H        -6.0826975491       -0.0943649505       -4.9401602752
 H        -9.6731723920        0.8685349615       -6.3598042618
 H        -8.6385540084        2.2534995613       -6.9334154674
 H        -9.6067290680        2.5410202220       -5.6088256993
 H       -12.4694756222        0.0346389958       -4.7666480717
 H       -14.1800012397        0.2156527961       -4.0020880172
 H       -13.1674494403       -1.2845266116       -3.9332675353
 H       -13.5070560820        2.0009016178       -2.4125123824
 H       -12.5135200625        1.9490305401       -0.8870637797
 H       -14.1964908078        1.1563323790       -1.0399497710
 H        -9.6085321728       -0.3767990910        4.4532964693
 H        -8.9269785896       -0.7947009107        2.9141890342
 H        -9.7560916467       -1.9422905240        3.7351766260
 H       -12.2879803194       -0.4374642242        4.5528994021
 H       -12.6905570339       -1.8966228765        3.7367069010
 H       -13.3164414411       -0.4610930815        3.1709964012
 H        -4.7030873010        5.0835588632        2.1454049533
 H        -5.0803807515        3.8827786270        0.9995215843
 H        -5.2992672760        3.5072263082        2.7050434045
 H        -6.7491947809        5.5153875559        3.8000939314
 H        -7.9441574620        6.2994555231        2.6191529967
 H        -6.2544355333        6.5753902248        2.3709808111
 H       -13.1975213108        6.4149671122       -0.0332043273
 H       -12.2278005679        5.0918021817        0.8168421422
 H       -12.7229300121        5.0419262542       -0.9055669567
 H       -11.6871994297        7.1933230512       -2.3060500575
 H       -10.3718677303        8.1429568852       -1.7572777495
 H       -11.9585467982        8.2493892807       -0.9576507869
 H        -8.5301658468        7.8945160553        5.3972746332
 H        -9.9354807518        8.4429774692        6.3900175492
 H        -8.3854454424        9.2165309147        6.4387080290
 H        -9.1360501527       11.5447220978        5.6797799990
 H       -10.8410713275       10.8554538017        5.5981195895
 H        -9.9502529377       11.9129965560        4.3165489611
 Na       -8.8908247513        2.5287912850       -1.7384375549
