117

 C        -6.9621432498       11.2442263366        4.3080571829
 C        -7.6220817486        9.9564284355        3.8100828005
 O        -7.1139984400        9.0730201701        3.1147679036
 C        -9.0193015432        9.9333602301        4.4160264352
 C        -9.8898464981        9.4498867211        3.1189608989
 O       -10.1726629597       10.2984497145        2.2325192009
 C       -10.4505033353        7.9840031562        3.1882403230
 C       -11.3201691892        7.7976421521        1.9390058095
 C       -10.5871737104        6.8145106785        0.9928660304
 O        -9.4590759628        6.6562743480        1.3314884912
 C       -11.0578550942        6.4181558050       -0.4339996725
 C       -10.0025885605        5.2909550659       -1.1826572775
 O       -10.2918325487        4.1561275575       -1.4038078491
 C        -8.6519551380        5.8407554506       -1.5683797165
 C        -7.4418023472        5.7822819073       -0.6441527852
 C        -7.3622802587        4.5786264291        0.3752236331
 O        -7.6378314311        3.4690602422       -0.0574619072
 C        -6.8968206256        4.4844850841        1.8886170060
 C        -7.6580152493        3.3735573453        2.7777913475
 O        -7.1547403666        2.6715092966        3.6298763254
 C        -9.2357968941        3.1946787910        2.5064583215
 C        -9.6034507362        1.7923588633        2.8849088751
 C       -10.9408678185        1.2325581700        2.5291020938
 O       -11.8746713901        1.8836820529        2.1492848467
 C       -11.1727656869       -0.3855126406        2.9266539931
 C       -11.2699816618       -1.3729653332        1.5517696101
 O       -10.1934895748       -1.7253168935        1.1030074428
 C       -12.5278271915       -1.9594200026        1.1103538471
 C       -13.2963429534       -1.0344484644        0.0856794228
 C       -12.9977751315       -1.2533582455       -1.3653318519
 O       -13.0264389698       -2.3734907493       -1.8814343822
 C       -12.7828931155        0.0152463817       -2.3186679717
 C       -11.1107411927        0.1393668001       -2.0791260971
 O       -10.8009720679        1.2965546002       -1.8709627073
 C       -10.1358151480       -1.0735553108       -2.4534348647
 C        -9.1960047719       -0.7446411309       -3.6954927785
 C        -8.0103774011        0.3028975658       -3.6181581756
 O        -7.2868045152        0.3677801745       -2.6594562098
 C        -7.8030919933        1.1188958056       -4.9462030157
 C        -7.3973541552        2.7528239564       -4.5824965507
 O        -7.4522194449        3.1334594286       -3.4475944893
 C        -6.9935701005        3.5822936229       -5.7424585133
 C        -6.5233938413        0.5898075571       -5.6497200527
 C        -8.9794352789        1.0529577552       -5.8202499006
 C       -13.2232746161        0.0889118524       -3.8994089649
 C       -13.6005745133        1.4474858684       -1.7987802967
 C       -10.1217812131       -1.0140709541        3.7434420616
 C       -12.4525456213       -0.3862161769        3.7083641473
 C        -5.4159836741        3.8336010133        1.7795901878
 C        -7.0373509075        5.8603454830        2.7022852375
 C       -12.4417434225        5.7416160575       -0.4158908186
 C       -11.0355133725        7.7380900959       -1.2357379722
 C        -9.0280799062        8.7453491411        5.4133678523
 C        -9.5466586833       11.2026534247        5.0326054722
 H        -6.0679893411       11.4175055733        3.7403388495
 H        -6.6440374873       11.2721683370        5.3721261496
 H        -7.6181069274       12.0976686261        4.0300240316
 H       -11.1506089914        7.9005366683        4.1071837723
 H        -9.6435452891        7.2605240248        3.3836873972
 H       -11.4441317813        8.7770460189        1.5720130078
 H       -12.2832162025        7.3173118462        2.0151386968
 H        -8.6112679058        6.7865039105       -2.0536074804
 H        -8.3938410772        5.2691168294       -2.5344815315
 H        -7.3323987125        6.6740311661       -0.0620170266
 H        -6.4924755579        5.6347125293       -1.2031339379
 H        -9.5289440123        3.4378058424        1.5013921013
 H        -9.7056492559        3.9699326727        3.1775994068
 H        -9.4421930911        1.5046168773        3.9189571901
 H        -8.9253339087        0.9694062130        2.4129276789
 H       -13.1063446650       -2.0514723508        1.9482726876
 H       -12.3404321460       -2.9741335708        0.6618750949
 H       -13.1636763702       -0.0208748195        0.3859247685
 H       -14.3212418575       -1.0596248379        0.4545434451
 H       -10.7987951129       -1.9532748708       -2.7167221465
 H        -9.6102545281       -1.4324629246       -1.5295633062
 H        -9.7696237617       -0.4120976842       -4.5810918358
 H        -8.8034764263       -1.8255473776       -4.0277428182
 H        -7.9249202388        3.9945410653       -6.1777826998
 H        -6.5453690188        3.0095538049       -6.6098661477
 H        -6.3898733159        4.4198602909       -5.5310720659
 H        -6.0568055098        1.4053494552       -6.1663713906
 H        -6.6884930749       -0.3101769238       -6.2581039377
 H        -5.7918589792        0.4343644081       -4.8228440323
 H        -9.0474080554        0.0950407804       -6.3340662386
 H        -8.8108227989        1.8350521984       -6.5909209547
 H        -9.9030312832        1.3459091163       -5.4036347141
 H       -12.8847290108        1.0192985379       -4.1666123532
 H       -14.2885753912        0.1142401522       -3.9762627435
 H       -12.6753888898       -0.5858414156       -4.6452119245
 H       -13.0779361440        2.3231583045       -2.1037862328
 H       -13.7991380176        1.4502590773       -0.7710092151
 H       -14.5491688390        1.5594124756       -2.3843603186
 H        -9.9140081224       -0.3305095693        4.5824017767
 H        -9.1440283965       -1.0693757451        3.3136489892
 H       -10.3737768918       -2.1146126783        4.1524257504
 H       -12.4524856162        0.3489650715        4.5662249572
 H       -12.9052619960       -1.3867318179        4.0607720144
 H       -13.2517474650        0.1020698479        3.0865322676
 H        -4.7791175505        4.5337052787        1.3040711516
 H        -5.4062447864        3.0131313283        1.0101731262
 H        -5.0673976825        3.4681276611        2.7383728853
 H        -6.1157618973        5.9689596669        3.1840922661
 H        -7.9203300206        5.8291141594        3.2748131063
 H        -7.2270945447        6.6602534118        2.0716727473
 H       -13.2898791619        6.3171838379       -0.0289851545
 H       -12.4344084612        4.8147833487        0.1067698643
 H       -12.6283727523        5.5567831815       -1.4490151947
 H       -11.6584824138        7.5330447435       -2.1908353670
 H       -10.0471600107        7.9973356514       -1.5697667782
 H       -11.5707647497        8.5906375606       -0.6377165288
 H        -8.7652692071        7.6942235156        5.1296703317
 H       -10.0221531624        8.6902313736        5.7932374831
 H        -8.4573739917        9.1225045324        6.3028014491
 H        -9.0892419822       11.6164871021        5.9209304498
 H       -10.5711514712       11.1808377856        5.2350635128
 H        -9.3288329345       12.0308634710        4.3841530431
 Na       -8.8409054879        2.5413169812       -1.7659521700
