117

 C        -6.5306310696       11.3051830391        3.7674055157
 C        -7.4577277754       10.1071074979        3.7950223459
 O        -6.9527296468        9.0768009299        3.3264911025
 C        -9.0215068139       10.0400204342        4.3094609015
 C       -10.0095300343        9.6506028497        3.0503025704
 O       -10.0495260685       10.4493582556        2.1901047096
 C       -10.6990144589        8.1524064404        3.0892796758
 C       -11.2796113424        7.6273386823        1.7362019342
 C       -10.5909112820        6.6916232280        0.8845426554
 O        -9.6803618126        5.9857734204        1.3335436926
 C       -10.9726678811        6.6559286981       -0.6530024135
 C        -9.9251037113        5.5798350049       -1.3283741983
 O       -10.3418573667        4.4389675933       -1.5837943384
 C        -8.4438392788        5.8334253388       -1.5581007814
 C        -7.5767950888        5.7276506460       -0.2789305828
 C        -7.5365698918        4.4004994659        0.5070242272
 O        -7.9135612169        3.3551645712       -0.0425515810
 C        -6.8775602252        4.4587046424        1.8009285554
 C        -7.7744691865        3.2682992340        2.6386566353
 O        -7.0089574134        2.5194272387        3.1942696739
 C        -9.3053489425        3.0873631398        2.6281681009
 C        -9.5637668056        1.6135787475        2.9890117501
 C       -11.0631369083        1.1467796201        2.6381341208
 O       -11.6904787617        1.8485285108        1.8360371831
 C       -11.3394236105       -0.3558520879        3.1178274868
 C       -11.3606953962       -1.1121317862        1.7899706516
 O       -10.3570537933       -1.1638123405        1.1194959570
 C       -12.7124240602       -1.7825632913        1.2086246431
 C       -13.3357231882       -0.7557275191        0.2346858422
 C       -12.9783796742       -1.0582346800       -1.2545536359
 O       -13.1341710179       -2.2019671093       -1.6621499849
 C       -12.7030026084        0.1165996125       -2.2217895378
 C       -11.1272269321        0.3315315388       -1.9944822584
 O       -10.7497879550        1.4706841417       -1.7620340221
 C       -10.1721094499       -1.0016104951       -2.1790451823
 C        -9.2760604126       -0.8968174513       -3.4388872954
 C        -8.1422287363        0.1466100819       -3.4761042926
 O        -7.3142778708        0.2113171907       -2.5858210659
 C        -7.7450522809        0.8826875388       -4.8519800257
 C        -7.4923913724        2.4855499168       -4.6548111240
 O        -7.5874792199        3.0135456694       -3.5580582304
 C        -7.3913649351        3.4905237974       -5.8844725411
 C        -6.3911309476        0.4429838175       -5.2884248486
 C        -8.7330259008        0.7882304865       -6.0297254883
 C       -12.9047883914       -0.5711907086       -3.6929857732
 C       -13.5029710959        1.3243308607       -1.8554230342
 C       -10.3279939895       -0.8560465250        4.1548022906
 C       -12.7664164433       -0.1539637285        3.7376339716
 C        -5.4095192232        3.8581773250        1.6036888394
 C        -6.6830237712        5.7632390235        2.5577998674
 C       -12.3350290398        5.9623172561       -0.6279645686
 C       -11.0416929874        7.9577905192       -1.4580633207
 C        -8.9377975101        8.8953800194        5.3401801518
 C        -9.5664000100       11.3540109311        5.0503376956
 H        -5.6409504550       10.9746241513        3.1565875616
 H        -6.2291440357       11.3121369560        4.8087839828
 H        -6.8357058281       12.2646975726        3.4724632903
 H       -11.5478101401        8.0920243768        3.7396697628
 H        -9.9942998708        7.4312374662        3.5718631185
 H       -11.3297959978        8.5488435600        1.0375336919
 H       -12.3300512191        7.2416337340        1.6391492817
 H        -8.1713779041        6.8503287141       -1.9097743342
 H        -8.0883956728        5.2272889360       -2.3306017394
 H        -7.5297566741        6.6453194852        0.3876283986
 H        -6.5352659262        5.6801704740       -0.6560313394
 H        -9.6091309127        3.4603158838        1.6173287356
 H        -9.7544341274        3.7707628520        3.3262060066
 H        -9.3545106499        1.5866547250        4.0816487706
 H        -8.9862459434        0.8923087256        2.5001695383
 H       -13.5238771623       -2.1361756734        1.9783797985
 H       -12.3677168744       -2.6341330445        0.6599823542
 H       -13.3265681108        0.2254642039        0.7499084730
 H       -14.4265971333       -0.8560006880        0.2865642335
 H       -10.6765199813       -1.8819570019       -2.4359678274
 H        -9.7079250178       -1.2961972321       -1.2354495881
 H        -9.8158070452       -0.8393189010       -4.3828380740
 H        -8.8237989233       -1.7807806718       -3.3309105025
 H        -8.0926602507        4.2920572788       -5.8140320749
 H        -7.4813868268        3.0682061565       -6.9240116450
 H        -6.4379223830        4.0246648069       -5.8075462831
 H        -6.4523951131        0.5274176553       -6.3644646341
 H        -6.3711617040       -0.5694433820       -4.9504457365
 H        -5.5560179073        0.9461102255       -5.0318397985
 H        -8.8838250986       -0.2251206240       -6.3034146478
 H        -8.3347310295        1.2059301255       -6.9308880961
 H        -9.7668992654        1.3007642083       -5.7386942603
 H       -13.3000057404        0.0407177384       -4.5602611145
 H       -13.5974439586       -1.4014015439       -3.5298831552
 H       -12.0129210364       -1.0553230704       -3.9732022116
 H       -12.8671478097        2.2354169260       -1.7951536945
 H       -13.9487165497        1.0853489195       -0.8403127186
 H       -14.2562784205        1.6254757374       -2.5167325283
 H       -10.3054388773       -0.2783526495        5.0331982644
 H        -9.3030515129       -0.9050503541        3.8651578708
 H       -10.6715498144       -1.8475623576        4.4465754377
 H       -12.7417047965        0.7245990505        4.4013002262
 H       -13.0151926398       -0.9915797472        4.3230837030
 H       -13.6473042350        0.1745693924        3.1517903171
 H        -4.9807381856        4.3511404278        0.6570413726
 H        -5.3054659291        2.7994793843        1.4752577874
 H        -4.8365607999        4.1371972815        2.5135898528
 H        -5.6073915979        5.8435804914        2.8311806405
 H        -7.4692046048        5.8365825356        3.3599201214
 H        -6.9613969346        6.6117231355        1.8654246738
 H       -12.9781464841        6.2301028965        0.2109471453
 H       -12.2135797385        4.8295948716       -0.4988502614
 H       -12.8252786722        6.1803687787       -1.6402326306
 H       -10.6561066024        7.6819148623       -2.4001837523
 H       -10.3375660980        8.6918356283       -1.0261696470
 H       -12.0070277297        8.2662309208       -1.6763956964
 H        -8.4883772240        8.0331327888        4.9165491529
 H        -9.9827251631        8.5320743911        5.5058011428
 H        -8.4825314527        9.1769099172        6.2630192363
 H        -8.9357839341       11.9091676035        5.7320740161
 H       -10.3673047550       10.9297570528        5.6879058539
 H        -9.9685095658       12.2652736316        4.5072709991
 Na       -8.6040479584        2.3190482166       -1.7919394665
