117

 C       -11.3755675077        0.3648728645        8.5620400412
 C       -11.0331466495       -0.3712531169        7.2877183635
 O       -11.2253110620        0.1890815365        6.2522003611
 C       -10.5205399009       -1.8059514772        7.4735488071
 C        -9.8151618871       -2.2876374727        6.1153322041
 O       -10.4916240272       -2.9396691910        5.3427354924
 C        -8.3742307107       -1.7960395202        5.7781404141
 C        -8.3313071983       -1.4866150773        4.2992030250
 C        -6.9133565470       -1.1602774873        3.8454889072
 O        -5.9141956295       -1.3939063749        4.4649243631
 C        -6.9010317118       -0.3038976018        2.6081255347
 C        -7.3100115101        1.2095857538        2.7513846740
 O        -7.9834684750        1.5582242355        3.7278395246
 C        -7.0171593201        2.2586187464        1.6373916425
 C        -6.8750254637        3.6600478275        2.2367248589
 C        -8.0167022953        4.4425214572        1.6115350961
 O        -8.0961686401        4.8605713444        0.4792964478
 C        -9.2626522992        4.8302758896        2.4698626866
 C       -10.4922205644        4.7683175416        1.4323529424
 O       -10.6406606205        5.6829857601        0.6154258579
 C       -11.4368719132        3.5090448397        1.4961733092
 C       -12.3029109743        3.2781338904        0.1423976759
 C       -11.3978669296        2.8131956020       -0.9984939753
 O       -10.2757045131        2.3001250221       -0.7842662657
 C       -11.8644085313        2.9588957111       -2.5323946870
 C       -10.7361309729        3.5463723196       -3.4728314490
 O        -9.9962275968        4.4390791120       -3.1267473889
 C       -10.6113405017        2.8596648021       -4.9159887997
 C       -10.0669959991        3.9718309320       -5.8666544626
 C       -11.1605328552        5.0012661654       -6.1640149042
 O       -12.1847023329        4.9306986085       -5.4958486300
 C       -10.9333921455        6.1607420882       -7.2230129658
 C       -10.5712176989        7.5249337069       -6.4084894229
 O        -9.4850834543        8.0743466440       -6.5667235461
 C       -11.7635748646        8.1618556516       -5.6761297139
 C       -11.3852279881        9.1036216806       -4.5011084499
 C       -10.6199063128        8.4676104760       -3.2967888216
 O       -10.5999265180        7.2857867062       -3.1133461397
 C        -9.7259160366        9.3176235579       -2.3069246537
 C        -8.2959466492        8.9136980399       -2.7012998488
 O        -7.9444248452        7.7835867554       -2.4271890897
 C        -7.5685418499        9.8582874114       -3.6651253673
 C        -9.7901736484       10.8521681286       -2.4498578996
 C        -9.9956280144        8.8863877579       -0.8253662143
 C        -9.9054574482        5.6141645521       -8.3241044650
 C       -12.3636573852        6.3911435793       -7.9390598724
 C       -11.9737228571        1.4803788947       -3.0214388723
 C       -13.1096037303        3.8734469681       -2.8395180027
 C        -9.3747683477        3.8890638092        3.6911833298
 C        -8.9662289084        6.2648470865        2.9840949726
 C        -5.3871982997       -0.3791664380        2.2344664236
 C        -7.8586058068       -0.9091807022        1.5391231100
 C        -9.6876481922       -1.9481214121        8.7690029788
 C       -11.7944867080       -2.6911851397        7.6617794485
 H       -12.0342664762       -0.2369898487        9.1916673214
 H       -12.0532832668        1.2611738906        8.2693897917
 H       -10.3993613552        0.6860590732        8.9398623604
 H        -7.6152568187       -2.4527880816        6.0039321927
 H        -8.1418827024       -0.9394421504        6.4413154845
 H        -8.9368110839       -0.6685229604        3.9351767000
 H        -8.7996001754       -2.2692693792        3.6659529963
 H        -7.9366864938        2.2548928122        1.0285258366
 H        -6.1845871941        1.8859119674        1.0339172341
 H        -5.9647469194        4.2239403555        1.9414551385
 H        -6.9134898678        3.5502415566        3.2704139622
 H       -12.1372988237        3.6527250245        2.2269172744
 H       -10.7784618811        2.6298291626        1.5333767480
 H       -12.9387350256        4.1119607221       -0.0835281238
 H       -12.9107410197        2.4613510161        0.3904114257
 H       -11.5335314797        2.3435181150       -5.3709087578
 H        -9.9210645609        1.9839927038       -4.7827885667
 H        -9.7694557318        3.4492879551       -6.8304240215
 H        -9.1045188111        4.5045285484       -5.5827968488
 H       -12.5667471235        7.4356779890       -5.4095494823
 H       -12.3747439225        8.8774182362       -6.3598113055
 H       -12.2808461996        9.6676687257       -4.1554399237
 H       -10.7203095456        9.9115116773       -4.8458878591
 H        -7.0678800809       10.6910916059       -3.1833971597
 H        -8.3450114023       10.3924318118       -4.2343019905
 H        -6.8434391083        9.3356872041       -4.3383091638
 H       -10.8733921098       10.9658349941       -2.2078048151
 H        -9.5164485617       11.2958195282       -3.4610631448
 H        -9.1627809130       11.3756362314       -1.7725561182
 H       -10.6261221001        8.0410975884       -0.9073869178
 H       -10.3500599767        9.6788431332       -0.2322837153
 H        -9.1056657216        8.5065350764       -0.4682555188
 H       -10.3899595094        4.7686578085       -8.8373494596
 H        -8.9519531772        5.1639707200       -7.9161970047
 H        -9.6674623620        6.4562510736       -8.9182725560
 H       -12.5135429221        5.7702125503       -8.8313297373
 H       -12.4364918570        7.3953858950       -8.2707819867
 H       -13.1626849418        6.1298788646       -7.2657971774
 H       -12.6392338755        0.8848332926       -2.3812733399
 H       -11.0020845109        0.9379235261       -3.0225894160
 H       -12.4426946460        1.5354609996       -4.0155378015
 H       -12.7360704576        4.8990986421       -2.7832641223
 H       -13.8299043399        3.6083828595       -2.1168008070
 H       -13.4363171582        3.6574693375       -3.7878566283
 H        -9.3908943492        2.8198001599        3.3434230464
 H       -10.3367845903        4.1856690239        4.1445553082
 H        -8.6208748895        4.1615224904        4.3312268483
 H        -8.8869789459        7.0477615450        2.2482084915
 H        -7.9960773027        6.1943173543        3.4065607454
 H        -9.6677839858        6.5474124059        3.7574488752
 H        -5.1379862263       -1.3673463005        1.9604073857
 H        -4.8557050557       -0.0713097664        3.1248895512
 H        -5.0916076827        0.2177884715        1.3678619388
 H        -8.9016177475       -0.9066380552        1.8027187777
 H        -7.6999168277       -1.8951157877        1.3040190193
 H        -7.7939315944       -0.4165086842        0.5978808386
 H        -8.8240348743       -1.2190251935        8.7572725541
 H        -9.2220670613       -2.9839068944        8.7021072174
 H       -10.0690412613       -1.8831927289        9.7771262756
 H       -12.3671507967       -2.5907182327        6.7277716004
 H       -12.4126020826       -2.5573829676        8.5513670014
 H       -11.5559498859       -3.7364341424        7.8008926838
 Na       -9.3960220284        5.8741957019       -1.4626140018
