117

 C        -6.8044884090       11.3787762071        3.1910598665
 C        -7.4934093084        9.9760989061        3.4633698655
 O        -6.9006098709        8.9365749291        3.3415994222
 C        -8.9118026684       10.0288711527        4.2260551794
 C        -9.8438823313        9.5561430648        3.0623304229
 O        -9.9136696589       10.3576804823        2.2072715253
 C       -10.4363415082        8.2695999705        2.7264338869
 C       -11.1165405377        8.1173730310        1.3613910646
 C       -10.7178939672        6.6416854252        0.8313489812
 O       -10.5225553627        5.6974322551        1.6329497649
 C       -10.7676677285        6.5686284542       -0.7872318688
 C        -9.7500718531        5.5343048452       -1.3158065532
 O       -10.2188621156        4.5073665979       -1.8227086705
 C        -8.2941172541        5.8270429474       -1.4842978385
 C        -7.4371226582        5.9539573771       -0.2326115884
 C        -7.5166609011        4.4984838358        0.4196365887
 O        -8.1337760438        3.6468357154       -0.1452719901
 C        -6.8285198913        4.2102105465        1.7467431477
 C        -7.4735380841        2.9461290737        2.5969037662
 O        -6.6226368129        2.3349008226        3.1396295403
 C        -8.9686198820        2.9168194213        2.8012475072
 C        -9.5513932637        1.6388426926        3.3588002020
 C       -10.9782996140        1.3186915776        2.7618660196
 O       -11.6205908618        1.8775344678        1.8811967394
 C       -11.6550061542        0.0195482218        3.2685015076
 C       -11.5534268021       -0.8479098160        2.0030572240
 O       -10.5021271641       -0.8777288364        1.3652321683
 C       -12.8346007435       -1.5262002348        1.3885012293
 C       -13.3912307810       -0.4897161407        0.3878228139
 C       -13.0926154892       -0.9642052468       -1.0529439635
 O       -13.1145160941       -2.1606938915       -1.2517868817
 C       -12.5991972899       -0.0519184037       -2.2131495011
 C       -11.1556723490        0.2868020894       -1.7842103448
 O       -10.9139582044        1.4853584557       -1.8478276637
 C       -10.0962735382       -0.8612023535       -1.7564899896
 C        -9.4816910956       -0.8047069537       -3.0998494313
 C        -8.2255778686        0.2118007772       -3.4256516894
 O        -7.6443657588        0.6946040255       -2.4570228073
 C        -7.6713971277        0.6201040284       -4.9311736218
 C        -7.7511132180        2.2226418346       -4.9200312573
 O        -7.7595285834        2.7977121546       -3.8196038932
 C        -7.6400066713        2.9704024046       -6.2900045512
 C        -6.2144119238        0.2030080628       -5.0560294807
 C        -8.4467107218       -0.0388950015       -6.1574996315
 C       -12.6557214337       -0.9836699763       -3.4386939410
 C       -13.4913025887        1.1637254197       -2.2409457163
 C       -10.6807163643       -0.7754218349        4.4150482915
 C       -13.0545527969        0.3418840648        3.7046899302
 C        -5.3491928965        3.8893569074        1.3669518283
 C        -6.8015994563        5.4268380330        2.8382375470
 C       -12.2287697033        6.0570415908       -1.0926363128
 C       -10.3833345332        7.9794855114       -1.4904026527
 C        -8.9263576467        9.0432635839        5.4229015968
 C        -9.1997670477       11.5404372217        4.6461077753
 H        -5.7955265858       11.1201487627        2.8097214094
 H        -6.8427809477       11.9961691207        4.0693638127
 H        -7.3552684870       11.8356987327        2.3636063526
 H       -11.1250360713        7.6238208601        3.3456594347
 H        -9.6452003393        7.4785562744        2.7758636534
 H       -10.7720338342        8.8130478489        0.6453651592
 H       -12.1263369845        8.2073315152        1.3255374419
 H        -8.1949378346        6.7644998625       -2.1202880026
 H        -7.8597868337        5.0049341876       -1.9910238536
 H        -7.6629850076        6.6597203633        0.5591588117
 H        -6.4338660929        6.2620867646       -0.4832769908
 H        -9.5012263514        3.2184072856        1.8421879097
 H        -9.0336472939        3.8479437621        3.3698659780
 H        -9.7087957881        1.7949397852        4.4564608606
 H        -8.9526629762        0.7898036084        3.0977308850
 H       -13.6353073280       -2.0426507658        2.0310771394
 H       -12.6158385939       -2.2330078650        0.6442430879
 H       -13.1972677947        0.5547715760        0.6847495084
 H       -14.4570481365       -0.4986632157        0.3283354499
 H       -10.5835404160       -1.8850678361       -1.6115962755
 H        -9.4137786888       -0.8614284067       -0.9205983614
 H       -10.2625369368       -0.4464903640       -3.8135980693
 H        -8.9217515346       -1.7218253608       -3.4103120489
 H        -7.8571728357        4.0195147235       -6.1735853179
 H        -8.2285598501        2.6747832468       -7.1525358039
 H        -6.5440943866        3.0156267743       -6.4738828772
 H        -5.6906906680        0.8350092137       -5.8085572127
 H        -6.1930621145       -0.9052323604       -5.1728710592
 H        -5.7490501637        0.4511005116       -4.1150154728
 H        -8.4995698534       -1.1188225409       -6.1811502066
 H        -8.0815673134        0.1909517280       -7.0971457694
 H        -9.5396548880        0.2810066175       -6.0220014823
 H       -11.9282514487       -0.8034671072       -4.2694563623
 H       -13.6153413398       -1.0303297042       -3.9417708449
 H       -12.5387975200       -1.8909337380       -3.0203901729
 H       -12.9941608877        2.1211091255       -2.3443938056
 H       -14.2993896263        1.2848895348       -1.5160706993
 H       -13.9750728705        1.0763707706       -3.1883136194
 H       -10.6066536984       -0.2493251197        5.4137641680
 H        -9.6188010162       -0.8308841608        4.0170930870
 H       -10.9248897161       -1.7632510227        4.6952188467
 H       -13.0435045263        0.9445351272        4.6797261744
 H       -13.6671014472       -0.5333322161        3.9145526995
 H       -13.4430699175        1.1087949553        2.9473497942
 H        -4.7455134872        4.7776407466        1.4925957993
 H        -5.1958184722        3.3641058424        0.4603283303
 H        -5.0533449329        3.1118113910        2.0868485311
 H        -6.5989616728        4.8768751282        3.7349604000
 H        -7.7419644905        5.8489999913        2.9437478450
 H        -6.0406164985        6.1731955103        2.7246155334
 H       -12.9386928704        6.8336422507       -0.9380751940
 H       -12.4464859349        5.4358905812       -0.2749196466
 H       -12.2537739892        5.5104683161       -1.9793851792
 H       -10.0779324337        7.8161326728       -2.5320865896
 H        -9.5675869276        8.3534466056       -0.7509454205
 H       -11.2914367294        8.5524066679       -1.5793074515
 H        -8.5943860249        8.1331571268        4.9245237274
 H        -9.9618927062        8.8606002581        5.8832815216
 H        -8.1608852105        9.2671843488        6.1638899989
 H        -8.6902834549       11.7175442772        5.5393466377
 H       -10.2304545993       11.7810305188        4.9655673385
 H        -8.9646361312       12.3603464274        3.9805344053
 Na       -8.8394680896        2.4710700635       -1.5893004610
