117

 C        -6.7270370761       11.0280409753        2.6264743804
 C        -7.3839323659        9.9880448103        3.4483110902
 O        -6.9071249386        8.8682840158        3.3297784134
 C        -8.8624393176       10.2086439910        4.1725291990
 C        -9.6310646441        9.8211046646        2.9026021203
 O        -9.8878817629       10.6109633108        1.9664676726
 C        -9.9877317563        8.3974724389        2.7137011284
 C       -10.9284302694        8.0487084479        1.5054031479
 C       -10.7669562355        6.6656035745        0.8371504997
 O       -10.7982752663        5.6202752048        1.3062066306
 C       -10.6373146320        6.7015903488       -1.0230374460
 C        -9.6943553411        5.5729741714       -1.4361544969
 O        -9.9997824613        4.4641595236       -1.8137944828
 C        -8.1482264680        5.8289389223       -1.3235183424
 C        -7.6188501968        5.9360988365        0.0810048875
 C        -7.5247283085        4.5188015067        0.6866795607
 O        -8.0413418523        3.5396292492        0.1314131208
 C        -6.6421373255        4.2796239791        2.0023872454
 C        -7.2208888482        2.9828839438        2.6945027126
 O        -6.7004679954        1.9019554942        3.0406588566
 C        -8.8069665731        2.9783938762        2.7364145901
 C        -9.3040646870        1.7903904027        3.5191998033
 C       -10.7475355400        1.6021413067        3.0290375867
 O       -11.2819922784        2.4022901925        2.3234971218
 C       -11.5295582307        0.2005575973        3.3589909915
 C       -11.6905464938       -0.7984738298        2.1207585634
 O       -10.6639240672       -1.2090634938        1.6067471287
 C       -13.0851323960       -1.2323304693        1.6286955309
 C       -13.5259930521       -0.4863480942        0.2665739578
 C       -13.1470861384       -1.2875607931       -1.0090399908
 O       -13.2300542564       -2.4802071643       -1.0304768213
 C       -12.7970417253       -0.2505607814       -2.3626320001
 C       -11.3090218022        0.2526022240       -1.9264504135
 O       -11.1816211300        1.4291958412       -1.6813745115
 C       -10.0445437930       -0.7226158388       -1.9090958248
 C        -9.1734119370       -0.9806326630       -3.2192890109
 C        -8.1511596405        0.1373222619       -3.3548038597
 O        -7.6629132769        0.7009474005       -2.3960259944
 C        -7.6627013102        0.5421430482       -4.7776312967
 C        -7.8677784711        2.0595331523       -5.0978264473
 O        -8.1742914848        2.8074851153       -4.2091880240
 C        -7.6797086465        2.4096534078       -6.5486598240
 C        -6.0284204013        0.1654395641       -4.7635018787
 C        -8.3720617573       -0.3898836804       -5.7549706494
 C       -12.7715888397       -0.9418776141       -3.6488285627
 C       -13.8146536365        1.0252174611       -2.4250245596
 C       -11.1201665246       -0.6630662054        4.6424758365
 C       -13.0236934232        0.7339118543        3.8382683051
 C        -5.1531068822        4.0096232494        1.5284675559
 C        -6.8060773330        5.4754994270        3.0224157547
 C       -12.1112505286        6.2822569923       -1.4423949676
 C       -10.2947836393        8.1201133728       -1.7207238602
 C        -8.9606929164        9.0347370732        5.2224177373
 C        -9.3568808042       11.4833659688        4.7197742312
 H        -5.7856625751       10.6392339961        2.3613363356
 H        -6.6581352214       11.8624398699        3.3573570942
 H        -7.3749985445       11.4312956161        1.8248676611
 H       -10.6116882287        8.1547616883        3.6010156139
 H        -9.1583101275        7.7055154515        2.8406021234
 H       -10.9372860939        8.8978592079        0.7797411045
 H       -12.0725787527        8.0457430806        1.7750997545
 H        -7.9582530671        6.6904159326       -1.8692372560
 H        -7.7147912394        4.8526408288       -1.6995159080
 H        -8.2488560045        6.6507736189        0.6618678491
 H        -6.5990847831        6.3331634729        0.3072229260
 H        -9.1858273566        2.8466904181        1.7553511821
 H        -9.1841024129        3.9665015875        3.0274586367
 H        -9.1897817695        2.0169488776        4.5319328912
 H        -8.8105637840        0.8862585855        3.0876330722
 H       -13.8274091297       -0.8558216330        2.2382858675
 H       -13.2738058522       -2.3501303848        1.4962908679
 H       -12.9210502449        0.4080218914        0.2888122373
 H       -14.5810937686       -0.1361031320        0.4013832734
 H       -10.4832952089       -1.6550235560       -1.5886299076
 H        -9.3667805424       -0.5060609271       -1.0927837265
 H        -9.7758084156       -1.0237951075       -4.0401884835
 H        -8.3729944114       -1.7276652570       -3.1086528709
 H        -7.4165551189        3.4424887989       -6.9109497107
 H        -8.6940060133        2.2370318421       -6.8493267170
 H        -7.0386991223        1.7112755476       -7.0729580961
 H        -5.4482555141        0.9402353769       -5.1790920181
 H        -5.7608514284       -0.7540968562       -5.1979368559
 H        -5.8289352725        0.1313144075       -3.6772864251
 H        -8.0397573890       -1.4457098023       -5.5723859021
 H        -8.1439734775       -0.2259295626       -6.8602835603
 H        -9.3727045683       -0.4289452238       -5.6638634104
 H       -12.3036239314       -0.3310962849       -4.3625114282
 H       -13.7914940477       -0.9960434800       -4.0135842241
 H       -12.3666292613       -2.0045298314       -3.6859252517
 H       -13.3951831440        1.9632241145       -2.7577131186
 H       -14.1033724221        1.3282658951       -1.4460712480
 H       -14.7810912899        0.8991360416       -3.0061741131
 H       -10.9758255200       -0.0230570247        5.4823719509
 H       -10.3264531518       -1.3897020828        4.5435584081
 H       -11.9389517553       -1.2741726253        4.9758982298
 H       -12.9762064053        1.5423732084        4.5466657283
 H       -13.6117822157       -0.0658728339        4.4087342168
 H       -13.6037487367        1.1045423635        3.0027528320
 H        -4.4995941794        4.8905684619        1.4535639200
 H        -5.2881420262        3.3963818240        0.5957093486
 H        -4.6712904513        3.1990010110        2.0869129034
 H        -6.9577573892        5.1382081744        4.0884325944
 H        -7.7564279772        6.0998599750        2.8253113828
 H        -5.8830182160        6.0986164810        2.9786222484
 H       -12.7808863943        7.1605824393       -1.1759286089
 H       -12.4961376041        5.3943005458       -0.8887356848
 H       -11.9949259784        6.0089559163       -2.5191476949
 H       -10.7614064789        7.9402677032       -2.6688279955
 H        -9.2826504048        8.3268243378       -1.7572502506
 H       -10.8889271947        8.8806566803       -1.2068383798
 H        -8.5318558281        8.0357764998        5.0240399242
 H        -9.9398552106        8.9788661584        5.5828134028
 H        -8.3497587512        9.4780123760        6.0259430843
 H        -8.7021353653       11.8698667700        5.5609510799
 H       -10.3620315718       11.6245795650        5.1472079484
 H        -9.4976077098       12.2315433270        3.9439481694
 Na       -9.0467779249        2.6357629789       -2.0423597527
