117

 C        -6.7481280277       11.1278402100        2.5263177073
 C        -7.3839381846        9.8876307168        3.3457096526
 O        -6.9293335821        8.8111012104        3.4804911622
 C        -8.7951820649       10.2258113412        4.0572342938
 C        -9.7218487251        9.8358164980        2.8079433065
 O        -9.7841409353       10.7599352320        2.0636110147
 C       -10.0348896962        8.2697784322        2.5220657466
 C       -10.9242210552        7.9481402350        1.3434130767
 C       -10.7208004991        6.7113223741        0.5627093284
 O       -10.8044588844        5.6260615801        1.1474138868
 C       -10.6244489656        6.8156157253       -1.0462568381
 C        -9.6195907376        5.7523368043       -1.4507621562
 O       -10.1675692616        4.7131438442       -1.8068634746
 C        -8.0871873320        5.8668166212       -1.2820769219
 C        -7.6563214682        5.8213863110        0.2008586092
 C        -7.4236863872        4.4200445638        0.7608758603
 O        -7.8653365788        3.4697154374        0.1613054259
 C        -6.6802951475        4.2394227984        2.0887718581
 C        -7.1808181506        2.9286375498        2.7160305551
 O        -6.4929424857        1.9716406257        2.8831714693
 C        -8.8018385885        2.9437547904        2.8841153538
 C        -9.3062079105        1.7482493812        3.5883935081
 C       -10.7191620209        1.5722067165        3.1380299343
 O       -11.2575794606        2.4992268296        2.5315203856
 C       -11.6534776399        0.3253666198        3.5177420299
 C       -11.8408912171       -0.6761834325        2.2705019955
 O       -10.8753314957       -1.2904547088        1.8190206492
 C       -13.1789017285       -1.1156212395        1.7295627378
 C       -13.4680770130       -0.4207057317        0.3121917599
 C       -13.1352296458       -1.2252238725       -1.0263671879
 O       -13.2360834341       -2.4109803161       -1.1479285804
 C       -12.8065621705       -0.3721580550       -2.2704222026
 C       -11.3354835435        0.1987552503       -2.0656777041
 O       -11.2678812982        1.3699831717       -1.7132399279
 C       -10.1645459222       -0.6857490017       -1.9118311494
 C        -9.2403184843       -1.0510209047       -3.0588204695
 C        -8.1692994617        0.0836260412       -3.2763515785
 O        -7.7510578991        0.7453756135       -2.3050301898
 C        -7.5423951677        0.3898620013       -4.7193007061
 C        -7.9432750785        1.8574496991       -5.1400510945
 O        -8.3712958970        2.7920725110       -4.4485796096
 C        -7.7403917099        2.1140282743       -6.6800028015
 C        -5.9946798980        0.2681296542       -4.6376005526
 C        -8.2366553389       -0.4533034812       -5.7929159083
 C       -12.8587203224       -1.0446779935       -3.6936150043
 C       -13.7523190724        0.7117079376       -2.3721083484
 C       -11.1310675007       -0.5713650528        4.6484403473
 C       -13.0898095742        0.9738014084        3.7820566439
 C        -5.1735793676        4.0582101135        1.7445238208
 C        -6.6601509087        5.4234881735        3.1034774796
 C       -12.0702982804        6.3435659185       -1.5292947698
 C       -10.3115598095        8.1879498687       -1.6604387102
 C        -8.9054568116        9.0385458923        5.1751198592
 C        -9.1306440457       11.5932447101        4.5269621824
 H        -5.8231101561       10.7631099456        2.0257103296
 H        -6.6157109698       12.0697795228        3.0907675115
 H        -7.6699115575       11.2855201766        1.8527353690
 H       -10.1998885721        7.6654785041        3.4876910178
 H        -9.0554260434        7.9893322414        2.2091962317
 H       -10.7926428745        8.8876947794        0.7113854544
 H       -12.0357868683        7.9588634040        1.4841763926
 H        -7.9217137048        6.9004761696       -1.6495416594
 H        -7.6117548486        4.9857384762       -1.7990474639
 H        -8.4195575759        6.3397254332        0.7587467498
 H        -6.7499059325        6.4035088661        0.5398832722
 H        -9.2876571365        3.0153667109        1.9504050405
 H        -9.0780788604        3.8650317754        3.3904593510
 H        -9.3173168501        2.0659132245        4.6315576987
 H        -8.7090043409        0.8268617811        3.2471145926
 H       -14.1119926953       -1.0870268767        2.2437997694
 H       -12.9719166507       -2.1466149675        1.4243500416
 H       -13.1027494354        0.6302744381        0.3669752254
 H       -14.5945684769       -0.3652911925        0.3254759085
 H       -10.6189481865       -1.6347121183       -1.4039464947
 H        -9.5244159969       -0.3186843607       -1.1581796323
 H        -9.7445289123       -1.2139325353       -4.0285360470
 H        -8.4019731103       -1.7964896927       -2.7016233083
 H        -7.2640348974        3.1148448007       -6.7934206135
 H        -8.6694907753        2.2431561552       -7.1144607634
 H        -7.1453948368        1.3864917665       -7.2569498169
 H        -5.4788227778        0.9991716903       -5.2775162197
 H        -5.5308982759       -0.6944076663       -4.9373997132
 H        -5.7961235948        0.4695546097       -3.5542481517
 H        -8.5178758846       -1.4706422853       -5.4050178759
 H        -7.7486578616       -0.6255275712       -6.7273283063
 H        -9.2233352346       -0.0123439358       -6.0162379964
 H       -12.8385288196       -0.2202135691       -4.5000375701
 H       -13.8067607774       -1.6294445656       -3.9063355677
 H       -12.0416540436       -1.6964868020       -3.8387149118
 H       -13.4603969443        1.4499301392       -3.1257301642
 H       -13.7795690920        1.4016559428       -1.5336359498
 H       -14.8046343274        0.4022469892       -2.5990594570
 H       -10.7384210788       -0.0303518310        5.5452561105
 H       -10.2727475071       -1.0002969148        4.0673761440
 H       -11.6511748925       -1.3516894218        4.9941401494
 H       -13.0130473271        1.5255150701        4.6951230004
 H       -13.7234363662        0.1505487674        4.0936422559
 H       -13.5476823990        1.4726304283        2.9113626069
 H        -4.8233819416        5.0294338956        1.4628738369
 H        -5.0540176581        3.2928946760        0.9526296573
 H        -4.5117628728        3.6468496118        2.5433561016
 H        -6.4826387044        5.0974784280        4.1904275932
 H        -7.6564222316        5.8685436985        3.1488374235
 H        -5.8715522230        6.1738201131        2.8082630752
 H       -12.8293438948        7.0401791791       -1.0066124803
 H       -12.2873925675        5.3058654310       -1.2647512099
 H       -12.0099907496        6.4025617283       -2.6243569198
 H       -10.4057871386        7.9600492915       -2.7024887461
 H        -9.2488055070        8.5409440792       -1.3838366353
 H       -11.0133763388        8.8592700773       -1.2648787414
 H        -8.3436732318        8.1562147668        4.9353911932
 H        -9.9573288878        8.8396349986        5.3279226837
 H        -8.5088241523        9.3567685864        6.1196226548
 H        -8.4456888284       12.0411104715        5.2750917986
 H       -10.1352694333       11.6002810768        5.1431365874
 H        -9.5215455025       12.2603758988        3.7927762619
 Na       -9.0270904796        2.5889522693       -2.1742339481
