117

 C        -6.8655859865       11.0665188943        2.5321265232
 C        -7.4294552783        9.9021743179        3.4027023462
 O        -6.7195380255        8.8628981454        3.4267138656
 C        -8.7857191920       10.1128218977        4.0123161977
 C        -9.6155326925        9.7508675498        2.6381645631
 O       -10.0029443763       10.6486233417        1.9590627470
 C        -9.9251679746        8.3484901646        2.2826827524
 C       -10.9932405099        8.2800902175        1.2166000366
 C       -10.8379032908        6.8602752491        0.4528303877
 O       -10.7094031202        5.6725901817        0.8920085219
 C       -10.6950833479        6.9039833043       -1.0883518026
 C        -9.6291613949        5.7000391599       -1.4438091190
 O       -10.0420893101        4.6658296283       -1.9479075618
 C        -8.1455324714        5.9801712608       -1.2171108236
 C        -7.6730307237        5.8526992219        0.2577584258
 C        -7.3417353572        4.3603663066        0.7363411879
 O        -7.6285816091        3.3855498278        0.0791311719
 C        -6.6188978322        4.2781405351        2.0451571078
 C        -7.1362549162        2.9064646339        2.7019492176
 O        -6.3769743452        1.9801548269        2.8338205605
 C        -8.5895299812        2.8438030569        3.1969200725
 C        -9.3737651397        1.5308091711        3.7001628929
 C       -10.9146685871        1.5397900867        3.1866284591
 O       -11.3506887708        2.5437117450        2.6748113627
 C       -11.8478297314        0.3082327128        3.5664929733
 C       -11.9333407068       -0.7131855713        2.2728111705
 O       -10.8457814712       -1.2137943327        2.0963580164
 C       -13.3464952036       -1.0567543350        1.6376312774
 C       -13.4795742812       -0.4263653566        0.2266898833
 C       -13.1698802221       -1.2238317216       -0.9697507193
 O       -13.2281272449       -2.4483331112       -1.0982335330
 C       -12.7814171570       -0.2500769512       -2.2970570431
 C       -11.3278840491        0.2626554684       -2.0258549718
 O       -11.1584950873        1.4649440972       -1.9233114402
 C       -10.2201577122       -0.8339746458       -1.6958241759
 C        -9.2891191524       -1.0453330630       -2.9061498190
 C        -8.2134763682        0.0783164553       -3.2016589281
 O        -7.8336181538        0.7492839452       -2.2850633233
 C        -7.6424168701        0.3158591003       -4.6511469500
 C        -7.9740388771        1.7443589627       -5.2488306861
 O        -8.5277074875        2.6162632270       -4.6333543859
 C        -7.7255444822        2.0045285849       -6.7827225976
 C        -6.1201395861        0.3858202319       -4.5396857940
 C        -7.9807680277       -0.7352521338       -5.8101545981
 C       -12.8372692994       -1.3890646249       -3.6246875444
 C       -13.8821409106        0.7826094812       -2.3452778336
 C       -11.1261007949       -0.3596333404        4.6442672194
 C       -13.1504517144        1.1198056618        3.8966673244
 C        -5.0319396374        4.0129349856        1.8401664735
 C        -6.7023344816        5.4008607377        3.1440057436
 C       -12.0606593360        6.5259199477       -1.5655362266
 C       -10.2632356955        8.2985628990       -1.5714917161
 C        -8.9661983534        9.1685381173        5.2786041546
 C        -8.8118915296       11.5221722784        4.3932551825
 H        -6.0238876396       10.4645509638        2.0112324223
 H        -6.4524540785       11.9737209153        3.0360062742
 H        -7.7282985032       11.3100477693        1.9170342235
 H       -10.3065449241        7.8807332112        3.2201688002
 H        -8.9519898310        7.8377665731        2.0582810165
 H       -11.1076045624        9.1926445872        0.6418194672
 H       -11.8907248704        8.3045143812        1.7443214494
 H        -8.0144525234        7.0813887990       -1.5563517660
 H        -7.5937642102        5.2004690250       -1.6828515435
 H        -8.2890318126        6.4057799679        0.9581107128
 H        -6.7132015008        6.3239682248        0.4017186110
 H        -9.1635097723        3.1159339714        2.2682633735
 H        -8.6655578965        3.7138998257        3.8285464457
 H        -9.4495684063        1.6851339574        4.8297345278
 H        -8.8659686209        0.6874746406        3.2715149974
 H       -14.3125453233       -0.7709183940        2.1778553711
 H       -13.3880929493       -2.0911386083        1.5048937668
 H       -12.9057542227        0.5345413395        0.2926521381
 H       -14.5294558758       -0.1554255746        0.1132377274
 H       -10.6102859103       -1.8250285407       -1.3685779687
 H        -9.6023595239       -0.4996979554       -0.8140121387
 H        -9.9333231808       -0.8746361546       -3.8680346501
 H        -8.7215866559       -2.0070698600       -2.8358201288
 H        -7.2128255855        2.9055950656       -6.7873918461
 H        -8.6698761799        2.2415847266       -7.3866282597
 H        -7.0910791809        1.2912111912       -7.2782109574
 H        -5.7312940453        0.6316973656       -5.5981559602
 H        -5.7675276925       -0.7129907176       -4.5431788242
 H        -5.6673903326        0.9291712285       -3.7178569102
 H        -8.3043323064       -1.7207399782       -5.5648047301
 H        -7.1598744180       -0.7987596604       -6.4706745809
 H        -8.8207567243       -0.3033440311       -6.5238940791
 H       -13.2812186350       -1.0472876345       -4.6178087356
 H       -13.4759402792       -2.2364000282       -3.3178890089
 H       -11.8555297134       -1.8391491027       -3.8275244783
 H       -14.1108371233        1.2003282499       -3.3335777490
 H       -13.7816719890        1.7786089338       -1.8338064853
 H       -14.7539380269        0.3070229407       -2.0484921430
 H       -10.9173318892        0.2780943143        5.5154523383
 H       -10.2162006920       -0.6921425645        4.1750741598
 H       -11.5690627841       -1.4011520053        5.0710143264
 H       -12.9314891442        1.4847886143        4.9248983881
 H       -13.9925295326        0.5069253854        3.9897768055
 H       -13.4125194789        1.8724827087        3.0657230133
 H        -4.7078609715        4.8546959417        1.1750478218
 H        -4.7900878935        3.0617362054        1.4709472821
 H        -4.4375427767        4.1572078902        2.7381501688
 H        -6.1211299300        5.1937365634        4.0139377740
 H        -7.7100335268        5.3585037851        3.4992450032
 H        -6.4369458534        6.4029798834        2.7898557067
 H       -12.7921685089        7.0730387275       -1.0557431717
 H       -12.1635954496        5.4404177667       -1.4096943279
 H       -12.0472982195        6.6838999742       -2.6340694377
 H        -9.7378411012        8.1414472335       -2.5599922201
 H        -9.5434276573        8.6215069992       -0.7843748502
 H       -11.1284600785        8.9596667484       -1.4106000561
 H        -8.4271220417        8.2693090940        5.1604664775
 H       -10.0578383483        9.0061542198        5.4536406189
 H        -8.5531058781        9.6081447663        6.1492441831
 H        -7.9709146114       11.8368784543        4.9529542553
 H        -9.6297665798       11.8000635919        5.0399694524
 H        -9.2111410550       12.1567949616        3.5564266232
 Na       -9.0825381792        2.6383522602       -2.1324522397
