117

 C        -6.3362522357       10.8377310602        2.1222898401
 C        -7.1558296303        9.8356872634        3.1269536489
 O        -6.6665139954        8.7939165694        3.4996644179
 C        -8.5814477424       10.1486607639        3.7256897555
 C        -9.6765893924       10.0056958340        2.5660990077
 O       -10.3486382502       10.9167627036        2.1574821957
 C        -9.9514110992        8.5052403894        2.0979687044
 C       -11.0828146365        8.2786027143        1.1453601490
 C       -10.8439384375        7.0633151719        0.2649779109
 O       -10.6906614687        5.8954972589        0.8070562612
 C       -10.5691615016        7.2181169389       -1.2688971553
 C        -9.6373182316        5.9217128015       -1.4494795544
 O        -9.9610445165        5.0165097948       -2.1898755571
 C        -8.1866767981        5.9623927343       -1.1982750253
 C        -7.7962513448        5.6747623235        0.2807198611
 C        -7.2720279013        4.2157261727        0.5634548493
 O        -7.2587376430        3.3846562792       -0.3005857383
 C        -6.6888309357        3.9843294350        2.0424522286
 C        -7.2793038079        2.6535692775        2.7545963322
 O        -6.4976532429        1.7438470650        2.8116409467
 C        -8.5800290525        2.5839237584        3.6418539953
 C        -9.4047674618        1.3907540857        3.1323012877
 C       -10.9000543395        1.5256795529        3.2650253297
 O       -11.3425907862        2.6332820527        2.9915163282
 C       -12.0625827067        0.5469617297        3.8733738696
 C       -11.9673813878       -0.5253696441        2.7103000306
 O       -10.8804419441       -0.9055032621        2.2751934547
 C       -13.3349082833       -0.6787260803        1.9143279682
 C       -13.3571238008        0.0422052375        0.5236405840
 C       -13.1458528710       -0.8801439029       -0.6265355318
 O       -13.1388120243       -2.1024620721       -0.3797419261
 C       -12.7911285980       -0.4374577424       -2.2145761618
 C       -11.3657681263        0.1922622510       -2.2375383345
 O       -11.1211669048        1.3433197840       -2.5912501567
 C       -10.2609459670       -0.7687846616       -1.7337794174
 C        -9.2704544749       -1.1788184093       -2.9723087871
 C        -8.2576235907       -0.0372868402       -3.1345278836
 O        -8.2698587171        0.8642864360       -2.2918049621
 C        -7.4760200866        0.0439681339       -4.5767970370
 C        -8.2880105014        1.2641602447       -5.2765008667
 O        -9.0705461372        1.9652296811       -4.6632595621
 C        -7.7886429309        1.5526129587       -6.7714004590
 C        -6.0449450922        0.5595526475       -4.2321923125
 C        -7.5523618293       -1.3792764225       -5.3223413925
 C       -12.8411583070       -1.7691136233       -3.2595623534
 C       -13.7732080973        0.6245334867       -2.6545198027
 C       -11.4883418550       -0.2794142701        5.1332039998
 C       -13.3458403568        1.2234562090        4.0626525953
 C        -5.2033272482        3.8726748727        1.8364585673
 C        -7.0049641124        5.1608129379        3.0703468814
 C       -11.8032265687        6.8647094659       -2.0467258270
 C        -9.9235250041        8.5899117954       -1.8619317627
 C        -8.8528629443        9.1517231005        4.8991396237
 C        -8.7564977755       11.6442040877        4.0342567127
 H        -5.5823612017       10.1205951996        1.6689849792
 H        -5.6674338452       11.5290240067        2.5381915729
 H        -7.1565980305       11.1782984650        1.5035902150
 H       -10.2633056726        8.1022793267        3.1096977835
 H        -9.0345571311        8.1107063088        1.8291607014
 H       -11.3955587594        9.2373856000        0.5228007682
 H       -11.9140571340        8.1480345669        1.9069121695
 H        -7.8314886456        7.0250161711       -1.3310809221
 H        -7.6410308395        5.2656484637       -1.8560014692
 H        -8.6074197892        5.8753982411        0.9873320110
 H        -7.0434532733        6.4909325554        0.5232025781
 H        -9.0585532372        3.5018506833        3.4413310176
 H        -8.2648137747        2.4964336709        4.6885302767
 H        -8.9664666723        0.4872264282        3.6294480828
 H        -9.2034310160        1.4227952639        2.0284039420
 H       -14.2060452619       -0.3857547492        2.5182294086
 H       -13.6033922328       -1.6530921163        1.5782169287
 H       -12.8190730656        0.9961289705        0.5907748144
 H       -14.4406001867        0.1857594029        0.3315277084
 H       -10.5697900864       -1.8075971452       -1.3719824952
 H        -9.8084431605       -0.2266129097       -0.9704758628
 H        -9.7048107139       -1.1567151513       -4.0312844526
 H        -8.8115065074       -2.2022761389       -2.8023830283
 H        -7.5720420049        2.5939408515       -6.8926315666
 H        -8.5847719751        1.3239030347       -7.5100559012
 H        -6.8830686303        0.9813612140       -7.0717301371
 H        -5.4063537753        0.1655906586       -5.0021848515
 H        -5.5804253353        0.1624213107       -3.3706755965
 H        -6.0188828964        1.5862710559       -4.1961223552
 H        -6.9009476823       -2.0312539934       -4.7399221944
 H        -7.3936532898       -1.4390949550       -6.3350366235
 H        -8.6158200525       -1.8855746317       -5.2299916746
 H       -13.5517051505       -1.7570640012       -4.1368881511
 H       -13.0824522459       -2.6591915320       -2.6938995541
 H       -11.8895634368       -1.8662373264       -3.6970706490
 H       -14.5156811013        0.0961862011       -3.2394430564
 H       -13.4541687254        1.4493482310       -3.3456445701
 H       -14.3853238666        1.1226848750       -1.9194855166
 H       -11.1836319624        0.3642741310        5.9344599417
 H       -10.6524754132       -0.7782367648        4.8026758813
 H       -12.2028684445       -1.1237709965        5.4548084120
 H       -13.2652936347        2.0336115096        4.7817157275
 H       -14.0543063390        0.5365897924        4.3643420388
 H       -13.6890434457        1.4918077817        3.0367638877
 H        -4.8082548109        4.4653546663        1.0048159232
 H        -4.8619732328        2.8320003600        1.6787763993
 H        -4.7194595821        4.3352957148        2.7428255541
 H        -6.8224727317        4.7067001466        4.1079627779
 H        -7.9857039837        5.6761671077        3.1464039292
 H        -6.2067807793        5.9823956473        3.1477714889
 H       -12.4066963802        7.7873635054       -2.0327949689
 H       -12.1998480294        5.9473626516       -1.5252662885
 H       -11.6918439384        6.7103009486       -3.1460910152
 H        -9.7106185837        8.3353206928       -2.8519307267
 H        -8.9645658501        8.7813552687       -1.3825022045
 H       -10.5401492297        9.3872643343       -1.6817629639
 H        -8.6835128316        8.2481231255        4.3267194849
 H        -9.8642858182        9.2198765986        5.3966591593
 H        -8.0750493102        9.0488108507        5.6416146308
 H        -8.1376263467       11.9545779635        4.8877396275
 H        -9.7790930837       12.0010801745        4.2834651405
 H        -8.5733523353       12.4759391229        3.2667908024
 Na       -8.9268411160        2.8468217149       -1.9467991598
