117

 C        -6.3590192628       10.6649499708        2.1341915147
 C        -7.1269969544        9.7778394174        2.9935185014
 O        -6.6114021328        8.7145039535        3.4333657087
 C        -8.5753412366       10.2642790032        3.5955134289
 C        -9.7834616248       10.0602872770        2.5646478000
 O       -10.4467644653       10.9980332803        2.0955204540
 C       -10.0134861402        8.5120190287        2.0975665498
 C       -11.0795220932        8.4013251436        1.0145456542
 C       -10.6786505895        7.1483119200        0.0985829946
 O       -10.8577345946        6.0756139537        0.6347106247
 C       -10.4069934959        7.1958391015       -1.4685313543
 C        -9.4469194925        5.9240635567       -1.7884066689
 O       -10.0653339723        4.9431801520       -2.1605854904
 C        -7.9961609488        5.9266928930       -1.1828880124
 C        -7.8337131999        5.6080942284        0.4043986908
 C        -7.3912571182        4.2008883041        0.6390792725
 O        -7.3139003132        3.3353706150       -0.2159787281
 C        -6.7681767439        3.9345587562        2.0941801796
 C        -7.3003140746        2.6140611338        2.7409095985
 O        -6.5231450687        1.6535461663        2.6710619541
 C        -8.6608429567        2.4185156788        3.4272062450
 C        -9.5330709306        1.2001819541        3.0300517145
 C       -10.9632307932        1.6636198279        3.4504410975
 O       -11.4536647059        2.7064428259        3.1873870789
 C       -11.9859548101        0.5723885243        3.8316538211
 C       -12.0159122176       -0.3407840167        2.6049196182
 O       -10.9671155874       -0.8742406527        2.3161776315
 C       -13.2868596326       -0.5553211918        1.8554901307
 C       -13.3095181186        0.2095828096        0.4776127212
 C       -13.0679244460       -0.8556021624       -0.6640942492
 O       -13.0565866567       -2.0058127943       -0.3691412329
 C       -12.8345913049       -0.4147164290       -2.1039709574
 C       -11.3282774854        0.1389318732       -2.2200451798
 O       -11.0386053584        1.2551870868       -2.5548189110
 C       -10.3138727369       -0.8950386664       -1.7393820293
 C        -9.3025892981       -1.2405919532       -2.8044518422
 C        -8.3500672852       -0.0440509802       -3.0772522617
 O        -8.1720157005        0.8027120954       -2.2592625828
 C        -7.4550237544        0.0690604681       -4.3598580443
 C        -8.2262754307        1.1052121712       -5.2538312111
 O        -9.1284525781        1.7051987594       -4.7451295563
 C        -7.9217709233        1.2650408088       -6.6821962778
 C        -5.9614247269        0.5309663042       -4.2634430389
 C        -7.3055280495       -1.2133163023       -5.2250922243
 C       -12.9509067515       -1.7428157588       -2.8444867885
 C       -13.8995847536        0.5567292031       -2.6121540178
 C       -11.3521746211       -0.1424679825        5.1838198809
 C       -13.2549972898        1.4393486537        4.1600759070
 C        -5.2942549129        3.7204079548        1.8289296810
 C        -7.0844165122        5.1116393267        3.0155931273
 C       -11.8778566160        6.9087660071       -2.0466375465
 C        -9.8115756050        8.5672313626       -1.6308068559
 C        -8.6896186455        9.3177749896        4.7456419044
 C        -8.6192043615       11.7352806689        4.1068620307
 H        -5.4973719013       10.0388095422        1.7500167077
 H        -5.7325671310       11.3645483843        2.7671094511
 H        -7.1708269759       11.0627435515        1.4998047553
 H        -9.9285011611        7.8603981717        2.9683068750
 H        -9.1216887549        8.5292133681        1.4524744870
 H       -11.1961965061        9.4000258644        0.4958520937
 H       -12.0513853802        8.1767346863        1.4731153895
 H        -7.3301107924        6.8808167492       -1.2955976592
 H        -7.4256530763        5.0995682571       -1.6465550215
 H        -8.7465753168        5.7578688813        1.0220681611
 H        -7.1135098109        6.3297955975        0.7900779496
 H        -9.1686009779        3.3617303091        3.1848760389
 H        -8.5127583511        2.2768579656        4.4524283510
 H        -9.1042217431        0.3870131159        3.7512454700
 H        -9.5182867938        0.9256345606        1.9542328220
 H       -14.2080014000       -0.5947003424        2.4898062087
 H       -13.2445503027       -1.4965524783        1.4076132803
 H       -12.4741733637        0.9939387022        0.4644632493
 H       -14.2919023002        0.6656351334        0.3011081129
 H       -10.6933762196       -1.8620272773       -1.5286427573
 H        -9.8615223228       -0.3562136522       -0.8166615829
 H        -9.7028481395       -1.7105169706       -3.8426635994
 H        -8.6259125252       -2.0400226721       -2.3507264630
 H        -7.8889523805        2.3010160630       -6.8447859217
 H        -8.7420688793        0.8480346252       -7.3843695956
 H        -6.9831711946        0.8518875526       -6.9743684121
 H        -5.5239026200        0.2430231915       -5.2464794078
 H        -5.3447610818       -0.0986847213       -3.6023009095
 H        -5.7585368999        1.5569433224       -4.0141302677
 H        -6.4707728051       -1.8339981479       -4.9242991697
 H        -7.1657797314       -0.8478292184       -6.2834829213
 H        -8.1935801799       -1.8281042968       -5.3693123718
 H       -13.7388084020       -1.8593271961       -3.5657593266
 H       -13.0908453595       -2.5662237859       -2.1252474922
 H       -11.9439793491       -1.8790982793       -3.4514036015
 H       -14.9019924054        0.0262919891       -2.6276545101
 H       -13.8109268164        0.9616713415       -3.6808674582
 H       -14.0429132254        1.4635089787       -2.0603434889
 H       -11.2893082707        0.7245338150        5.7778493517
 H       -10.4159406456       -0.6669539858        5.2099393461
 H       -12.1447296190       -0.8863241707        5.5867579691
 H       -12.8831607571        2.2762333049        4.7408069876
 H       -14.1257759628        0.9199764547        4.5594583030
 H       -13.5384424143        1.7488283868        3.1585781801
 H        -4.8104765810        4.5198208399        1.1581816423
 H        -5.2111924195        2.8173336726        1.2604183322
 H        -4.7077061216        3.7237373998        2.7478321922
 H        -7.3673530066        4.6883472177        4.0090240673
 H        -7.9133993253        5.9043708464        2.8350262685
 H        -6.1984694690        5.6961812509        3.3697545118
 H       -12.4621532231        7.7850605176       -2.0763838327
 H       -12.2233444216        5.9801458266       -1.4843435173
 H       -11.7749017506        6.6919983853       -3.1508375384
 H        -9.8218361132        8.8503312227       -2.7278950474
 H        -8.8099014710        8.5329955227       -1.3335781907
 H       -10.3696342281        9.2994345546       -0.9404574881
 H        -8.4200039388        8.3371185603        4.4103617438
 H        -9.6678125844        9.4395099571        5.2513410009
 H        -7.9365031690        9.5087999987        5.4850967515
 H        -8.1328143135       11.9883195573        5.0775353335
 H        -9.6215115643       12.1515469696        4.1551721257
 H        -8.2008671772       12.6018216903        3.4065974490
 Na       -9.0022295624        2.9533225267       -2.0647008937
