117

 C        -6.4327051700       10.7589645526        1.8931136702
 C        -7.1573520101        9.7318412099        2.9969177657
 O        -6.7876912503        8.6024253527        2.9791704109
 C        -8.4128471573       10.3535553526        3.5523678498
 C        -9.6665246508       10.0564187594        2.4970126084
 O       -10.3033727614       11.0121979517        2.2183458461
 C        -9.8608021395        8.5379779284        1.9284837165
 C       -10.9963206143        8.5640583969        0.9166336693
 C       -10.8058189355        7.1980011452        0.1589526584
 O       -11.1924825882        6.1491813737        0.6480762693
 C       -10.2842382566        7.2730186276       -1.4647643560
 C        -9.4315900147        6.0024686483       -1.7285152554
 O       -10.0461141335        5.0422410678       -2.1961339272
 C        -8.0048650147        5.8755230438       -1.2110271359
 C        -7.8713044518        5.5398768497        0.3144461391
 C        -7.4428325333        4.0080270222        0.5914373551
 O        -7.9099916554        3.1609526776       -0.1473628275
 C        -6.7323115103        3.8177251393        1.9569253479
 C        -7.2135446458        2.4296101406        2.5321963788
 O        -6.7516049211        1.3426166656        2.4053035512
 C        -8.6448461773        2.5989529250        3.0552023379
 C        -9.6163616130        1.4135561384        3.0070497523
 C       -10.9650502425        1.9694210504        3.4030836956
 O       -11.2247128823        3.1794299577        3.4296215556
 C       -12.0289171111        0.7258537453        4.0010121582
 C       -12.1952931431       -0.1556781765        2.7805363208
 O       -11.3040850285       -0.9029298898        2.4175801812
 C       -13.5603332511       -0.1325178498        1.9311442856
 C       -13.1683353895        0.3276273663        0.5474680244
 C       -13.0151715110       -0.8457645973       -0.3962600271
 O       -12.8829550681       -2.0246847796       -0.0774995671
 C       -12.8109493925       -0.5021395498       -2.0730572979
 C       -11.3541940931       -0.0423196507       -2.1555458848
 O       -11.1090753126        1.1583201881       -2.2328905898
 C       -10.2084126968       -1.0080755594       -1.6916931573
 C        -9.0682825329       -1.3365209881       -2.6814292452
 C        -8.1270357733       -0.1345955369       -2.9500130898
 O        -7.8664210251        0.6948957434       -2.0666719472
 C        -7.3795708267       -0.0665165073       -4.2494557824
 C        -8.3604795866        0.8442888426       -5.1671983127
 O        -9.1347002976        1.6514770656       -4.6736801493
 C        -8.1056342426        0.9104901143       -6.7527095059
 C        -6.0281480591        0.7623364048       -3.9636249473
 C        -7.1476445167       -1.4618600577       -4.9431608836
 C       -13.0442714909       -1.6993406226       -3.1178266017
 C       -13.7578002750        0.6678646132       -2.4363064801
 C       -11.4035072695        0.0731234873        5.1867176784
 C       -13.4056064829        1.2546103082        4.5071480717
 C        -5.1918422517        3.7870353745        1.7966078131
 C        -7.0417317386        4.7736887776        3.1333218521
 C       -11.5183802622        7.3261303271       -2.3273260812
 C        -9.4075657434        8.4321013586       -1.9938801465
 C        -9.0012678352        9.5345084859        4.8315424225
 C        -8.2420939961       11.7900713919        3.8487779308
 H        -5.6572802633       10.1140119123        1.5830327214
 H        -5.8824076703       11.4679448809        2.4212567296
 H        -7.1859092837       11.1425693318        1.2161445932
 H        -9.8896314417        7.8502798208        2.7805024077
 H        -9.0323741442        8.3824431694        1.2396271805
 H       -10.8958970967        9.3386944758        0.1724921895
 H       -11.9648592726        8.5767970571        1.3741055690
 H        -7.4071513524        6.7158188667       -1.3210829771
 H        -7.4729545894        5.1063123115       -1.7958195787
 H        -8.8364701018        5.7251264751        0.7454118240
 H        -7.1773526064        6.2900694263        0.7269158047
 H        -9.0373353447        3.4676215922        2.5333415493
 H        -8.4525283835        2.7865017311        4.1681708622
 H        -9.3009757496        0.6095896041        3.5930614756
 H        -9.7541903474        1.0100353683        2.0078397021
 H       -14.2770905820        0.5955378085        2.2606255024
 H       -14.1094904222       -1.1410298752        1.9963911294
 H       -12.2312486542        0.8282541095        0.5315072346
 H       -13.9789826615        1.0100707664        0.2523145490
 H       -10.7178875767       -2.0273455975       -1.4148352282
 H        -9.8039367632       -0.4428165707       -0.9098815769
 H        -9.3738153120       -1.6955292644       -3.6066287995
 H        -8.3338712272       -2.0417975685       -2.4146988168
 H        -8.8483317655        1.6005752628       -7.1871404934
 H        -8.2266073213       -0.0346790672       -7.2041001833
 H        -7.0584721614        1.1986740264       -7.0100374481
 H        -5.7940405856        1.5572250382       -4.7194950307
 H        -5.1157923930        0.1211719331       -3.8622330767
 H        -6.1984450104        1.1719574251       -2.9361670778
 H        -6.8393890813       -2.1851461647       -4.1696468682
 H        -6.4519139718       -1.4743820290       -5.6940452679
 H        -8.1107726529       -1.7241241155       -5.4901672644
 H       -14.1607179526       -1.8105385425       -3.3252960043
 H       -12.7900769837       -2.6613700666       -2.6867927673
 H       -12.5738936345       -1.5342637817       -4.0026371474
 H       -14.4868826307        1.0233992999       -1.7507296025
 H       -14.3369181037        0.3744882813       -3.2746239645
 H       -13.2433563856        1.5500260645       -2.8929583935
 H       -10.9358975166        0.8095381069        5.8737173861
 H       -10.5894174975       -0.4565644278        4.7435815830
 H       -12.0626288382       -0.7247385617        5.5900129234
 H       -13.0844701826        1.7050580974        5.4821214232
 H       -14.0297179029        0.3406202583        4.6507279817
 H       -14.0207683004        2.0648777056        3.9281469683
 H        -4.6855865072        4.6330982963        2.0868526277
 H        -4.8647157375        3.7115555284        0.7526516762
 H        -4.8064656971        3.0068346899        2.4495867395
 H        -7.0115667049        4.2953292535        4.0681936744
 H        -7.9661164222        5.1586247697        3.0382744575
 H        -6.4659687100        5.6374099283        3.2493594579
 H       -12.1701328685        8.1815466891       -2.1093962469
 H       -12.0208443371        6.4136829569       -2.2989032261
 H       -11.1403558980        7.5541915652       -3.2674015735
 H        -9.1063922526        8.1507259710       -3.0142957346
 H        -8.4586563151        8.5735228257       -1.3172311838
 H        -9.9832453857        9.3274240404       -2.0359059007
 H        -9.2640476894        8.4998356412        4.5847305698
 H        -9.8579260500       10.1313250421        5.1002371542
 H        -8.3466099652        9.5322393804        5.6914256397
 H        -7.5026012230       12.0269666910        4.5522464689
 H        -9.1653913624       12.1247185474        4.3316276246
 H        -7.9163236928       12.4431446822        3.0940388854
 Na       -9.1559503119        2.6618941437       -2.4143887520
