117

 C        -6.2138117667       10.5137656443        1.7158623410
 C        -7.2119033572        9.6900891279        2.6961097427
 O        -7.1319200076        8.5142106790        2.8265014479
 C        -8.4306875050       10.4021337860        3.4180583283
 C        -9.6390662170       10.1403646763        2.3839047483
 O       -10.2726010662       11.0736173245        2.0313949452
 C        -9.7450713395        8.7912682797        1.5326706566
 C       -10.8784413293        8.8328000516        0.3816176504
 C       -10.9027988682        7.2957092944       -0.2338357488
 O       -11.5533382569        6.4661898683        0.3385668376
 C        -9.9583785534        7.2261420473       -1.6237726252
 C        -9.3241049313        5.8034476250       -1.8433203710
 O       -10.2209325932        4.9872361566       -2.0808326322
 C        -7.8620765172        5.5913843319       -1.4723230000
 C        -7.6857422710        5.6319109980        0.0693811936
 C        -7.6625604483        4.1620700528        0.6177586926
 O        -8.1502193406        3.2335329168       -0.0458415473
 C        -6.6731256878        3.6847377617        1.7602889146
 C        -7.4970073503        2.3300389303        2.3055040819
 O        -7.0212488712        1.2842526770        1.9996028457
 C        -8.9090806740        2.6298703275        3.0022097577
 C        -9.9479242847        1.5569061239        2.8794865265
 C       -11.1582631577        1.9693803661        3.6654560114
 O       -11.4905191118        3.1378290258        3.8185674000
 C       -12.1066135377        0.8745895240        4.2016783131
 C       -12.5095885069       -0.1061912313        2.9673266246
 O       -11.7794246236       -1.0168336619        2.6513829647
 C       -13.7103594836        0.3402728360        2.0656470600
 C       -13.4514921061        0.4781581500        0.5886263629
 C       -13.0799656478       -0.6916136339       -0.3480199379
 O       -12.9872579814       -1.8772831107       -0.0293389539
 C       -12.6660972816       -0.4122504064       -1.9240415630
 C       -11.2054469094       -0.1109774572       -1.8191659297
 O       -10.8122291132        1.0752441979       -1.8542616271
 C       -10.1045285448       -1.1602886689       -1.4251141297
 C        -9.2124994424       -1.2752145938       -2.6407126161
 C        -8.1040990358       -0.2035466586       -2.7204150797
 O        -7.8389822858        0.4592786404       -1.7445469392
 C        -7.3787188210       -0.0211606922       -4.0075797917
 C        -8.1739450168        0.6987383464       -5.0520723494
 O        -8.7983687949        1.7319019772       -4.6879132022
 C        -8.4179497103        0.2201283044       -6.4242485886
 C        -6.1100288918        0.8398666142       -3.9000305330
 C        -6.8346818119       -1.3718031842       -4.5001669934
 C       -12.8058447927       -1.8408627829       -2.7404075691
 C       -13.4641476818        0.7115845832       -2.4988693292
 C       -11.5314687831       -0.0592926175        5.3451712024
 C       -13.2750490198        1.5208395948        5.0230830609
 C        -5.3902777689        3.1527458547        0.9795261199
 C        -6.5126478139        4.8505245166        2.7978607649
 C       -11.1899713411        7.3988750144       -2.7162337340
 C        -9.0165217234        8.3664956717       -1.8066802824
 C        -8.5138343592        9.6620214782        4.7657092495
 C        -8.1648148085       11.9707227334        3.7716033234
 H        -5.6382802185        9.7089653348        1.2071247395
 H        -5.6149467172       10.9813054247        2.5486636209
 H        -6.7978852103       11.1795760233        0.9795481909
 H        -9.7747510203        7.8975395007        2.1288576419
 H        -8.7649240073        8.7721135484        0.9108034184
 H       -10.7140895051        9.4770734330       -0.4188088608
 H       -11.8944173261        8.9685263525        0.7570641527
 H        -7.3039651694        6.2829036237       -2.0448276556
 H        -7.3018632661        4.6497538821       -1.8439395685
 H        -8.6351981052        6.0481221097        0.4542180522
 H        -6.8262216758        6.1406118685        0.4687446049
 H        -9.2521104622        3.6135737631        2.6618709047
 H        -8.6631804319        2.6819155996        4.0378731863
 H        -9.7429018419        0.6231423484        3.3293527667
 H       -10.2242834574        1.2379895375        1.8201588882
 H       -14.0513116761        1.2782142103        2.3983293746
 H       -14.5949440516       -0.3176124411        2.3514752908
 H       -12.5639121492        1.1613365645        0.4529572787
 H       -14.3539531779        1.0434443388        0.2048475767
 H       -10.6057819350       -2.1639729846       -1.3369145163
 H        -9.3943904054       -0.7098138629       -0.7141180496
 H        -9.6911663294       -1.3077904499       -3.6344809349
 H        -8.6457640674       -2.2992162267       -2.7547981538
 H        -9.4040433205       -0.3476408138       -6.3635535774
 H        -7.7145807826       -0.3488995072       -6.8981345246
 H        -8.5619857787        1.1347106606       -7.0216067218
 H        -6.0961738753        1.6545715405       -4.5740298850
 H        -5.2226146187        0.2389757358       -3.8693879153
 H        -6.1828118922        1.4085682149       -2.9297303579
 H        -5.8840092191       -1.7503272261       -4.0192452638
 H        -6.5300926470       -1.1247294568       -5.4723738346
 H        -7.6477172162       -2.1061879837       -4.5521544376
 H       -13.4108337238       -2.5465004974       -2.0381311971
 H       -11.8304794421       -2.3524431792       -3.0526387236
 H       -13.3693537040       -1.6624397999       -3.6216447483
 H       -12.7753113909        1.6244233002       -2.5425431170
 H       -14.3625140724        1.0071232152       -2.0063754700
 H       -13.8354325107        0.3855218949       -3.5494900429
 H       -10.8268557460        0.4503632360        6.0482529258
 H       -11.0072007798       -0.9142725453        4.8922597125
 H       -12.3802071483       -0.4036168169        5.9089157718
 H       -12.8998321641        2.0531355317        5.8444976213
 H       -14.0840373389        0.7925331381        5.1978744949
 H       -13.6129299142        2.3083069461        4.4147973057
 H        -4.5017644258        3.7358307791        0.9704422606
 H        -5.6215678732        3.0164217764       -0.1294311070
 H        -5.0755429221        2.1944933162        1.4288325958
 H        -5.8317480510        4.5603172451        3.6894796159
 H        -7.4203119891        5.3065532689        3.2236111351
 H        -6.0865182145        5.8167627957        2.3563494791
 H       -11.6018879836        8.4954377079       -2.6033374883
 H       -12.0402186209        6.7941509272       -2.4472641544
 H       -10.7930583697        7.2075513941       -3.7379961069
 H        -8.5665746221        8.4886812557       -2.7868034161
 H        -8.1733681403        8.1971320854       -0.9887310973
 H        -9.4574843082        9.3202753624       -1.7479875881
 H        -8.2463178311        8.5903602490        4.5546708876
 H        -9.4304333724        9.6592908943        5.2960797563
 H        -7.6646198443       10.1609237684        5.2873290818
 H        -7.1151262153       12.3208713969        3.8233327784
 H        -8.6356139964       12.2404585207        4.7872637430
 H        -8.3128079975       12.6725277634        3.0275063476
 Na       -9.1703157992        2.6244992934       -2.1953376538
