117

 C        -5.8895652122       10.5041213869        1.7870316968
 C        -7.0751148491        9.6564396028        2.3061065259
 O        -6.8899398170        8.4466605679        2.3713091015
 C        -8.2397837525       10.3134860443        3.0329077423
 C        -9.5253778551       10.2373877911        2.0741989823
 O       -10.3278733637       11.0886045484        1.9754272665
 C        -9.7980946671        8.8275714945        1.4006473595
 C       -10.8178570831        8.7253269977        0.2672469370
 C       -10.7953104891        7.3819547119       -0.5787405791
 O       -11.5155302994        6.5713302740       -0.1944884139
 C        -9.8891386300        7.3530314488       -1.9588168185
 C        -9.3747603432        5.9090289054       -1.9169055620
 O       -10.2097322085        4.9931288474       -1.9603298391
 C        -7.8871911787        5.5182137494       -1.7872989264
 C        -7.1042475834        5.3585016023       -0.3643202466
 C        -7.6005267276        4.1204107234        0.3528026387
 O        -8.6779368789        3.5606468800        0.0036961940
 C        -6.7249868743        3.3693765334        1.4940668605
 C        -7.6671321258        2.2755308328        2.2225646220
 O        -7.4454332303        1.1237902608        2.0701902211
 C        -8.9395214573        2.7386746544        3.0504683556
 C        -9.9197076263        1.6800926644        3.2350558699
 C       -11.3239595194        2.1157612250        3.8691144085
 O       -11.6263587528        3.1960419437        4.3068984665
 C       -12.2613230518        0.8268181959        4.1723096500
 C       -12.7188065608       -0.0204824477        2.9464197639
 O       -12.1392061901       -1.0661197156        2.6040847210
 C       -13.9206932709        0.5042956383        2.2160798290
 C       -13.5792572661        0.8251871733        0.7815950691
 C       -13.1975143797       -0.4574344340       -0.0222100719
 O       -13.4649314623       -1.6123773135        0.3275587876
 C       -12.5112469241       -0.4524342233       -1.5707142640
 C       -11.0688523539       -0.0251281006       -1.4343325459
 O       -10.7734213916        1.2118435942       -1.5712340926
 C        -9.9944821069       -1.1216107703       -1.1514133703
 C        -9.0386593369       -1.3831358051       -2.3849950480
 C        -7.9976423577       -0.1939772437       -2.4639830923
 O        -8.0036386563        0.6356084896       -1.5620140714
 C        -7.1348769192       -0.0393631380       -3.8213653931
 C        -8.2996584735        0.6499342826       -4.6651123749
 O        -8.5807765852        1.8071249671       -4.2896052458
 C        -8.8869809923       -0.0919770688       -5.8807104223
 C        -5.9472886684        0.9633842809       -3.5426748063
 C        -6.5168343040       -1.2781288494       -4.4871205581
 C       -12.7142693740       -1.8810406154       -2.0720210184
 C       -13.3962288986        0.6683699928       -2.3415543861
 C       -11.5238583435       -0.1411650404        5.1229489605
 C       -13.4477682568        1.4935036502        5.0119035641
 C        -5.7205567463        2.4873027538        0.6008414541
 C        -6.0396598979        4.4308802117        2.3794931555
 C       -10.9097339940        7.5067418463       -3.1266325392
 C        -8.7907254879        8.5268168176       -1.8638916794
 C        -8.8249835046        9.6774926343        4.3118666786
 C        -7.9694265776       11.8434790505        3.2440275440
 H        -5.2892304948        9.8817878546        1.2283841372
 H        -5.5820689134       10.9538610134        2.6989453501
 H        -6.2738392385       11.2691715705        1.1500719936
 H        -9.9912915430        8.1541240502        2.1969214229
 H        -8.8019152137        8.4618649587        1.0361651526
 H       -10.7170611089        9.6433393854       -0.3761582163
 H       -11.9221114025        8.6457434939        0.6316778117
 H        -7.2433683141        6.2902743639       -2.2341643173
 H        -7.6353287492        4.6328762084       -2.4012914807
 H        -7.3546835560        6.2270508836        0.3095898251
 H        -6.0393088183        5.2524600020       -0.5452519006
 H        -9.4030241079        3.5271321906        2.3708131798
 H        -8.7843099435        3.2218526561        3.9865755305
 H        -9.6663111745        0.8082460007        3.8667455609
 H       -10.1812806719        1.0937051388        2.2928560794
 H       -14.3115323506        1.2573454563        2.8775159907
 H       -14.7115824454       -0.2551804589        2.1873485464
 H       -12.6346887008        1.3666940234        0.6289891724
 H       -14.2680401395        1.3603068760        0.1667115244
 H       -10.3219689103       -2.0854989363       -0.8535025376
 H        -9.3321239572       -0.5499135111       -0.4790036252
 H        -9.5408169041       -1.6280456343       -3.3526587464
 H        -8.4214270642       -2.3283955236       -2.1792908491
 H        -8.3261524948       -1.0662821699       -5.9989803200
 H        -8.6550815569        0.4934064839       -6.6864826391
 H        -9.9881366179       -0.2943267154       -5.9383319298
 H        -5.1121192724        0.6676744414       -4.1460167964
 H        -5.6327336012        0.8797744211       -2.5084390096
 H        -6.0239310425        2.0070671983       -3.9110336695
 H        -5.8619379562       -1.6571763464       -3.6534829841
 H        -5.7912573449       -1.0080784113       -5.2591129186
 H        -7.1779453789       -2.0581263060       -4.6994927662
 H       -12.0651351410       -2.4947390224       -1.4819105105
 H       -12.5112258543       -1.9926673739       -3.1038871583
 H       -13.6707216773       -2.2052322015       -1.8777891851
 H       -13.7324992508        0.2533884150       -3.3213263617
 H       -12.7920941070        1.5078811119       -2.4321706860
 H       -14.2795705670        0.9659382242       -1.7693351973
 H       -11.4054185935        0.4963432898        5.9740912993
 H       -10.5718823693       -0.6484678736        4.8265759836
 H       -12.2104231666       -0.7852035652        5.5340174455
 H       -13.0194290005        1.9635696337        5.9360610839
 H       -14.1255895408        0.6338720363        5.3402634501
 H       -13.9161867364        2.3305125172        4.5214912355
 H        -5.4404824540        2.9894438968       -0.3346829052
 H        -6.1626186917        1.5000968248        0.3698852343
 H        -4.7898077485        2.2579718615        1.0638013182
 H        -5.5334319905        4.0494814863        3.2713482666
 H        -6.6879989504        5.1964043984        2.7372437298
 H        -5.2215190967        4.8263336600        1.7903767034
 H       -11.4844689579        8.4466150099       -3.0163046603
 H       -11.6364673433        6.7776351107       -2.9502533924
 H       -10.4758755769        7.2037905463       -4.0514005303
 H        -8.0882424737        8.3465593127       -2.6353629424
 H        -8.1878876868        8.7384630874       -0.9588818526
 H        -9.2112414819        9.4322282354       -2.2005900425
 H        -9.4482098843        8.8206529551        4.1201490785
 H        -9.6233336937       10.3198524873        4.5181466471
 H        -8.0838762953        9.6935132963        5.1285469605
 H        -7.3397815813       12.2217779856        4.0762667139
 H        -8.8807800837       12.4922376668        3.3288484757
 H        -7.3887080360       12.2659691850        2.5156743127
 Na       -9.1058560412        2.5580163459       -2.3597302020
