117

 C        -5.7427631199       10.4866686040        1.7808178599
 C        -6.9431287989        9.6308833172        2.4570962642
 O        -7.0120871448        8.4737595012        2.2062072825
 C        -8.2409645556       10.4053397509        2.8042658813
 C        -9.4609444698       10.1229965761        1.7896033559
 O       -10.3840952613       10.9641823893        1.8352691187
 C        -9.7355409307        8.6761797337        1.2327661218
 C       -10.7563176288        8.8722539087        0.0806470989
 C       -10.8960530490        7.4890870018       -0.5418771119
 O       -11.5559007507        6.4380619627       -0.3563420781
 C        -9.9054779982        7.3770464787       -1.8598621597
 C        -9.2170893257        5.9627281260       -1.8122349665
 O        -9.9985669221        5.0433050875       -2.1121966412
 C        -7.7776591466        5.5397008650       -1.8485829242
 C        -7.0012384525        5.1765972616       -0.4611669354
 C        -7.6791088037        3.9599726783        0.2985150681
 O        -8.8244197257        3.6169795870        0.1191471767
 C        -6.7554306882        3.2759309435        1.3395712372
 C        -7.7079413003        2.2281894008        2.1454439284
 O        -7.5064953657        0.9867351943        2.1455604955
 C        -8.9318721758        2.8319985155        2.8592351770
 C        -9.9238050315        1.8198526347        3.4070857845
 C       -11.3022906503        2.1131974551        4.0315319086
 O       -11.6167662002        3.2516493791        4.3225392590
 C       -12.2752043294        0.8374000074        4.3464607673
 C       -12.7601692800        0.0797933858        2.9700719413
 O       -12.1875361235       -0.9030071675        2.5883589446
 C       -14.0170347402        0.6057962352        2.1080819876
 C       -13.4266924938        0.7726866927        0.7739354278
 C       -13.2148912332       -0.5092657823       -0.0335956701
 O       -13.6623109375       -1.5048827118        0.4375688643
 C       -12.6078031600       -0.4455629136       -1.4307653171
 C       -11.0303975193       -0.0434790081       -1.3570407083
 O       -10.7243632411        1.1195061238       -1.5135951134
 C        -9.9376639374       -1.0126675878       -0.9597297326
 C        -9.0000816857       -1.2930178555       -2.1200197144
 C        -7.9708828387       -0.1426914671       -2.3701651068
 O        -7.8348749251        0.7078648454       -1.5578621831
 C        -7.0863441221       -0.0501248093       -3.7033443973
 C        -8.1695254162        0.6949232763       -4.6620658724
 O        -8.5841471869        1.8142400702       -4.3459365148
 C        -8.9439071680       -0.0392487091       -5.7035205650
 C        -6.0193322609        1.0340872745       -3.4669812076
 C        -6.5641448054       -1.3206403341       -4.2962998974
 C       -12.7835512786       -1.8661907542       -1.9936454486
 C       -13.3582523523        0.6256068175       -2.2605301081
 C       -11.4825875079       -0.1610630707        5.1464463414
 C       -13.5630852308        1.3936789688        5.0509142730
 C        -5.7460400170        2.4159996695        0.5534952799
 C        -6.0476288273        4.3044623371        2.1856603981
 C       -10.7868350102        7.5510782967       -3.0707441013
 C        -8.8414432819        8.5248106181       -1.9752975809
 C        -8.7820169969        9.7149163680        4.1596001013
 C        -7.9489631841       11.8124167109        3.2166524812
 H        -5.0928159250        9.7228304340        1.2701498495
 H        -5.4745780183       11.2045685252        2.5177561962
 H        -6.2186064294       11.0094774409        0.9413456914
 H       -10.2099049608        8.1581414400        2.0502015264
 H        -8.7206360688        8.1514340550        1.2212036887
 H       -10.3292373113        9.5783602898       -0.6660254579
 H       -11.6928621695        9.3199544457        0.4711838372
 H        -7.1310322349        6.2507309729       -2.3412063490
 H        -7.6783913663        4.5449644809       -2.4876578801
 H        -7.0710789132        5.9785147009        0.3126492296
 H        -5.9577513972        4.9212010918       -0.6861905423
 H        -9.3794959053        3.5624917012        2.1944989955
 H        -8.5456582879        3.4351974980        3.6766623261
 H        -9.5413312918        1.1562496072        4.1372778919
 H       -10.2146091979        1.0036187594        2.6322571909
 H       -14.5781113061        1.3694980923        2.5500441977
 H       -14.6970541411       -0.3006724369        2.0425586803
 H       -12.6081222790        1.5057087755        0.6785371344
 H       -14.1237292551        1.2041653211        0.0139922057
 H       -10.3537831513       -2.1324002588       -0.8203800960
 H        -9.4381734772       -0.5199285332       -0.1344492766
 H        -9.6889306116       -1.5253935583       -3.0056854432
 H        -8.4864053204       -2.3608316909       -1.9553404466
 H        -8.5504456230       -0.9004143315       -6.2186922535
 H        -9.3091175330        0.7282797326       -6.4162258505
 H        -9.8602521662       -0.2703256788       -5.1475033667
 H        -5.0264439039        0.7864795264       -3.7477778350
 H        -5.9983111104        1.1601853584       -2.4018723437
 H        -6.1290894051        1.9606329990       -3.9953594144
 H        -5.6332713973       -1.6248661781       -3.7456880296
 H        -6.2868797819       -1.1400020038       -5.2548079788
 H        -7.2810275333       -2.2027708883       -4.1378828207
 H       -11.9795069892       -2.4257439426       -1.4527907770
 H       -12.7469667612       -1.9971068396       -3.0352436083
 H       -13.6424426023       -2.2860037809       -1.5746325149
 H       -13.9893203964        0.0318312526       -2.9273775207
 H       -12.6314526226        1.2495193153       -2.7636618114
 H       -14.0229332906        1.3008086932       -1.6819211203
 H       -11.1846303332        0.2273020904        6.1084242074
 H       -10.7380420615       -0.4982096042        4.5797927823
 H       -12.2033422021       -1.0211392438        5.5010234932
 H       -13.2856365694        1.4243329949        6.0637459152
 H       -14.1745649868        0.5637132766        5.0387266885
 H       -14.0036555800        2.3819749769        4.7635741426
 H        -5.4539721877        2.7996872124       -0.3777621106
 H        -6.1072724493        1.3463722271        0.4619741409
 H        -4.8106787717        2.2702355406        1.1091598326
 H        -5.4373037350        3.9094471178        3.0586700925
 H        -6.8736925305        4.7910473641        2.7186235455
 H        -5.2979635957        5.0244508496        1.6807386385
 H       -11.4393706352        8.4424523005       -2.8923525603
 H       -11.4649157372        6.7151173722       -3.2728436745
 H       -10.1146025978        7.4860160396       -3.9163556899
 H        -8.0597519559        8.2231429799       -2.6412998938
 H        -8.2865236196        8.7292613513       -0.9928261363
 H        -9.1853850262        9.4764579464       -2.2696103409
 H        -9.2251052552        8.7509316792        3.9115671329
 H        -9.6274460021       10.1683070428        4.6523877556
 H        -7.8626607648        9.7651139602        4.7556913578
 H        -7.3181637581       11.8478277380        4.1245154270
 H        -8.8282301103       12.4627377667        3.5343387726
 H        -7.3185382677       12.5423738075        2.5938601719
 Na       -9.2918790601        2.5544679534       -2.3802400061
