117

 C        -5.6727775080       10.4049922634        1.8113115053
 C        -6.9989128731        9.6136327120        2.1075346055
 O        -6.9929632741        8.3734117516        2.1038531058
 C        -8.1634368458       10.4303130490        2.7983411540
 C        -9.5308786032       10.0845694666        1.8667150531
 O       -10.3184639271       10.9238791391        1.5446049795
 C        -9.6965869001        8.7222710382        1.1380040619
 C       -10.8822639984        8.7937448302        0.0748746679
 C       -10.7694398867        7.5377842942       -0.6772025461
 O       -11.5989683455        6.6711426840       -0.3898593392
 C        -9.6894078403        7.2520651128       -1.9274232828
 C        -9.1020457028        5.7768268106       -1.9896752861
 O        -9.8940976686        4.9069808177       -2.2656521797
 C        -7.5563652279        5.6577165870       -1.9005166753
 C        -7.0818240558        5.0762363696       -0.5646200860
 C        -7.7768330699        3.8439666696        0.1611292873
 O        -8.9262989525        3.6427113716        0.0165059912
 C        -6.9194617602        3.0816963589        1.1744316608
 C        -7.8499286646        2.2302890034        2.1032757154
 O        -7.5862730965        1.0488336951        2.2437307396
 C        -9.0640426018        2.9204490601        2.8187845279
 C        -9.7854132141        1.6904946847        3.5393207531
 C       -11.2602123789        2.1421657869        4.0908787284
 O       -11.6036932289        3.2738022077        4.2924110788
 C       -12.3207645289        0.8225963345        4.4659713372
 C       -12.7543436875        0.2459398392        3.0735942206
 O       -12.0895187432       -0.6496910526        2.6834310896
 C       -13.9051691450        0.7758630757        2.1606758560
 C       -13.4355417344        0.9632868137        0.7780989345
 C       -13.4003520350       -0.5126032043        0.0772198821
 O       -13.8587062996       -1.4815996607        0.5485011126
 C       -12.5387661871       -0.5381487012       -1.3262778709
 C       -11.0962983851       -0.0472596870       -1.1860730182
 O       -10.8595815663        1.0820572667       -1.5187904059
 C        -9.9305230818       -1.0062321847       -0.7502512669
 C        -8.8516494722       -1.2879512465       -1.9407666317
 C        -7.9400933116       -0.1015509980       -2.1847153864
 O        -7.7003941138        0.8306060270       -1.4063223580
 C        -7.1580314517        0.0574250478       -3.6281745174
 C        -8.3079837849        0.7248206177       -4.5826458971
 O        -8.4671619322        1.9163058674       -4.4806449177
 C        -9.0249074731       -0.1326987338       -5.6014897045
 C        -5.9792022072        1.0961902363       -3.4284251959
 C        -6.6930032485       -1.3711486613       -4.0647121058
 C       -12.7376123346       -1.9007321751       -2.1145794197
 C       -13.2567969158        0.5038941846       -2.3434179741
 C       -11.4787171206       -0.2010748404        5.1973403189
 C       -13.6459999628        1.3044574965        5.1319319447
 C        -5.6817556979        2.2723070740        0.4862987211
 C        -6.1467752389        4.0725716749        2.0985355893
 C       -10.6827222471        7.5085858762       -3.1208775245
 C        -8.6929083483        8.4326565906       -2.0337404440
 C        -8.6564680533        9.6059438323        4.0759779754
 C        -8.0423367744       11.8966738088        3.1126424675
 H        -4.9707114608        9.5092034380        1.8074088136
 H        -5.7458765275       11.0917953251        2.7202583620
 H        -5.5164714775       10.8929573801        0.8066216921
 H        -9.9033552005        7.8858817531        1.8921762489
 H        -8.6917873816        8.5119126523        0.9368404732
 H       -10.7674924845        9.7258048944       -0.4720760879
 H       -11.8231054432        8.7699886540        0.5058946973
 H        -6.9448883076        6.6101514357       -1.9623691020
 H        -7.1759832615        4.9412936575       -2.6612094090
 H        -6.9966954211        5.7979782916        0.2286809266
 H        -6.0585393950        4.6976755626       -0.8035060333
 H        -9.6612427953        3.5057052004        2.1841433197
 H        -8.6717436223        3.6846519159        3.5575968907
 H        -9.2786939867        1.2484664446        4.3840760871
 H        -9.9479621949        0.8591416646        2.9356074417
 H       -14.3021413976        1.7166139023        2.6084655811
 H       -14.6964550017        0.0415365358        2.3068224373
 H       -12.4815120502        1.5307814646        0.7285401192
 H       -14.0257732734        1.6583273640        0.1129024532
 H       -10.3590957180       -2.0036910915       -0.4798380335
 H        -9.3624310745       -0.4344724024        0.0650277095
 H        -9.4411110143       -1.4726863371       -2.9001159345
 H        -8.3575346213       -2.2455863582       -1.7632093227
 H        -8.4064762312       -0.5933216221       -6.3249498681
 H        -9.7675083826        0.5923765628       -6.1154816464
 H        -9.6275688746       -0.8617107647       -5.1090375196
 H        -4.9655350707        0.6712324622       -3.5363527234
 H        -5.9755499683        1.3991656574       -2.3884493260
 H        -5.9115011061        1.9193650954       -4.0686450002
 H        -5.7466322783       -1.6478722014       -3.6953923408
 H        -6.6693860328       -1.3665309405       -5.2118537491
 H        -7.3592373706       -2.1727737928       -3.6538086269
 H       -12.1915870659       -2.7660669733       -1.8122105046
 H       -12.5870916710       -1.6978902495       -3.2085203620
 H       -13.8751825032       -2.1482961493       -1.9255041861
 H       -14.2096143153        0.0331113755       -2.5387937445
 H       -12.5478878108        0.7417540745       -3.2598830242
 H       -13.4298659133        1.4413990046       -1.8293491044
 H       -10.9558624358        0.0737961723        6.1112575133
 H       -10.8996525173       -0.6747180125        4.3472831894
 H       -12.1840997013       -0.9550325668        5.5347875562
 H       -13.4599114832        1.0962416515        6.1639655316
 H       -14.3337704299        0.5519775713        4.9029809199
 H       -13.9658389798        2.3380723174        4.9407380901
 H        -5.2770457662        2.8551834273       -0.3476171756
 H        -5.8648791128        1.2502418892        0.2199458067
 H        -4.8199628796        2.1320788114        1.1841653550
 H        -5.4470450203        3.6109536218        2.8286754730
 H        -6.9313565925        4.5117962461        2.8421821015
 H        -5.4775525768        4.8247827605        1.5898154839
 H       -11.3693254685        8.2681985166       -2.8413951454
 H       -11.3057253253        6.5635332296       -3.3601710570
 H       -10.0898468180        7.5768251915       -4.0581361800
 H        -7.9365334453        8.2935167948       -2.8563136469
 H        -8.1139632754        8.5529521688       -1.1453140706
 H        -9.1781772827        9.4781321507       -2.0007652674
 H        -8.7995423520        8.5842265158        3.7381588334
 H        -9.7019762369        9.8295394901        4.4756148956
 H        -7.9193648284        9.7852766468        4.8164697621
 H        -7.2831916338       12.2653394653        3.8245270331
 H        -8.9355350790       12.3238470244        3.5124288953
 H        -7.7877654240       12.6462985423        2.2353400267
 Na       -9.4780730570        2.7821877544       -2.2047259931
