117

 C       -11.6329859497        0.3641842820        8.7742657235
 C       -10.9241334206       -0.2583324944        7.6506242337
 O       -10.7349176438        0.3454067571        6.5948707073
 C       -10.4211157420       -1.7517841380        7.7296889428
 C        -9.7450538703       -2.2273727911        6.3577035329
 O       -10.3368783200       -2.8619717384        5.5328743293
 C        -8.2457820496       -1.7009880645        5.9561747250
 C        -8.2540763599       -1.4031380871        4.4769663256
 C        -6.8801302340       -1.0009795675        3.8614938401
 O        -5.8836099534       -1.1887628291        4.5074161226
 C        -6.7660991803       -0.2480852521        2.4445304234
 C        -7.2231534862        1.1350950012        2.8225671876
 O        -7.8891783501        1.2977226707        3.7930178112
 C        -6.8933397273        2.1945743881        1.7140278259
 C        -6.9484927627        3.7091269655        2.1015889291
 C        -8.1297646452        4.4089681496        1.4042640295
 O        -8.1145347813        4.7582099038        0.1922694844
 C        -9.3939510524        4.8069339036        2.2843755430
 C       -10.6816175880        4.7548582232        1.3656894533
 O       -10.7832306956        5.5905754337        0.4878118853
 C       -11.7406101329        3.7440676505        1.4767689046
 C       -12.3467271870        3.4343200694        0.0762014554
 C       -11.2794299486        2.9751326910       -1.0245001878
 O       -10.1871523938        2.5406329123       -0.7553965121
 C       -11.8359113200        2.8614273227       -2.4894474460
 C       -10.7113742331        3.4125174462       -3.5069537716
 O       -10.0549010424        4.3907349029       -3.2353399948
 C       -10.5501033410        2.8502370673       -4.9858102907
 C       -10.2309906237        3.8225205833       -6.1234003070
 C       -11.2971958599        4.9495911391       -6.2764497518
 O       -12.2792897237        5.0069536840       -5.5620731161
 C       -11.0057842787        6.1330871100       -7.2607471768
 C       -10.5263205778        7.2995275246       -6.3327633786
 O        -9.4284489649        7.7544861502       -6.5058849065
 C       -11.6894870459        7.8440221661       -5.4868254024
 C       -11.3757388128        8.9873033795       -4.5332422923
 C       -10.5707102348        8.4212009500       -3.3615750125
 O       -10.5947970489        7.2011871423       -3.1522208793
 C        -9.7002201934        9.3525011594       -2.4943605572
 C        -8.2253103490        8.8968712709       -2.6918940283
 O        -7.9328401338        7.8511806032       -2.1330584526
 C        -7.3178250560        9.5856496995       -3.7637681066
 C       -10.0913601299       10.8891334650       -2.7012418592
 C       -10.1129967915        9.1857170844       -1.0064721904
 C        -9.8902773763        5.8437029280       -8.3223947959
 C       -12.4210424149        6.3864833671       -8.0440900727
 C       -12.3981280938        1.3625943874       -2.6662980259
 C       -13.1214690803        3.7042488151       -2.6142189837
 C        -9.6811078891        3.9623450080        3.6086434321
 C        -9.2344486654        6.2734245670        2.7398469834
 C        -5.4293553727       -0.2450056121        1.7348491353
 C        -7.6572901701       -0.7684535704        1.3168315325
 C        -9.3509678469       -1.8240203340        8.8491481467
 C       -11.5780043464       -2.6985541987        7.9712707586
 H       -11.8820290465       -0.2845752384        9.6399455967
 H       -12.5909897266        0.5411906764        8.3856614238
 H       -11.1116882159        1.3236620630        8.9098501858
 H        -7.4151996396       -2.4600239955        6.2542861963
 H        -7.8616533037       -0.9189897151        6.5798680028
 H        -8.9631285504       -0.6185519101        4.2424242508
 H        -8.5944266823       -2.2443241588        3.9132253547
 H        -7.5666404532        2.0208252714        0.8953883038
 H        -5.9307478949        1.9030634376        1.3272549774
 H        -6.0148317673        4.1728271561        1.8440809714
 H        -7.1304277249        3.8202740816        3.2142720187
 H       -12.5139209777        4.2148987038        2.2026252031
 H       -11.3414299133        2.7866667093        1.8195452218
 H       -12.7818038689        4.3836565083       -0.3167538964
 H       -13.1689336799        2.6751286990        0.2208562990
 H       -11.4089734117        2.2579845131       -5.1744250943
 H        -9.7741880913        2.0837595600       -4.8862838886
 H        -9.8668474356        3.3280696214       -7.0525216693
 H        -9.3944523754        4.4133499591       -5.7550641998
 H       -12.2820679147        7.0815432691       -4.9967638553
 H       -12.3963205314        8.2202141053       -6.1592364046
 H       -12.2737792231        9.5399912791       -4.1782762317
 H       -10.7135233995        9.7574397711       -5.0067694908
 H        -7.3398785492       10.6615753259       -3.7875123901
 H        -7.6360019268        9.3036634150       -4.7141886926
 H        -6.3460267383        9.2171933001       -3.6177582449
 H       -10.9638643596       11.1483734295       -2.2140568728
 H       -10.2099333758       11.1048399205       -3.7671653727
 H        -9.2185696674       11.4611672200       -2.3644493236
 H       -10.0728166671        8.1288267013       -0.7539434593
 H       -11.1723923456        9.5488858188       -1.0825809535
 H        -9.4086462233        9.8083858678       -0.3314807879
 H        -9.7290772826        4.8083241686       -8.5348815231
 H        -8.9442874690        6.1835676350       -7.8830537209
 H        -9.9845397773        6.4593160913       -9.2436843553
 H       -12.5643465862        5.5226414459       -8.7191599233
 H       -12.4274053376        7.3617545572       -8.6436172724
 H       -13.3025354190        6.3705949541       -7.3518800071
 H       -13.4063224700        1.2844472210       -2.2566623471
 H       -11.7378219071        0.6790462852       -2.2104536420
 H       -12.5603559848        1.1323682059       -3.7026699787
 H       -12.8594312636        4.7339778487       -2.3006519148
 H       -13.9570132612        3.3071567911       -2.0143372159
 H       -13.2432847223        3.6159226369       -3.7069666038
 H       -10.0470749959        3.0037654219        3.4228791758
 H       -10.3754813515        4.5245581846        4.2431780208
 H        -8.6945606836        3.9924366694        4.1208544713
 H        -9.3497036831        6.9761035492        1.8945186183
 H        -8.2570098387        6.5132035421        3.1794696181
 H       -10.0864401742        6.4897858976        3.3659830483
 H        -5.0309329695       -1.2955126387        1.7462932447
 H        -4.7103705299        0.4828643195        2.1530338616
 H        -5.5054611895       -0.1142643967        0.6527177728
 H        -8.6809540668       -1.0296011866        1.6425464881
 H        -7.2674855936       -1.7615543892        0.9007122252
 H        -7.8483398178       -0.1634506483        0.4068620539
 H        -8.6511106844       -1.0054890392        8.8475602924
 H        -8.8898197987       -2.7821528884        8.9123352970
 H        -9.8041544190       -1.7978697961        9.8696216401
 H       -12.2506298361       -2.7040162818        7.1179047266
 H       -12.1334009167       -2.6603339241        8.9239285132
 H       -11.1640211843       -3.7170874292        8.1224382491
 Na       -9.3747936476        5.6972931343       -1.4521284606
