117

 C        -5.5202507738       10.4231189701        1.9263767800
 C        -6.8851639765        9.6255173095        2.0425176578
 O        -6.9076828064        8.5231286005        1.5770250199
 C        -8.1852754766       10.2823885256        2.5652566684
 C        -9.3330451874        9.9981493440        1.4993903454
 O        -9.9219849092       10.9895578192        1.1066864782
 C        -9.7329145871        8.5539267741        0.9523183203
 C       -10.8768028082        8.5485070109       -0.1861171128
 C       -10.6641281156        7.2853011455       -1.0722011618
 O       -11.3959037334        6.3140963107       -1.0033966068
 C        -9.4780620150        7.2872144087       -2.2851799418
 C        -8.9764537000        5.6646264797       -2.3719737642
 O        -9.7870608699        4.8876064166       -2.8389396674
 C        -7.5899932923        5.2941792018       -1.9671600675
 C        -7.1051631595        5.0043511816       -0.4593043892
 C        -7.7913315511        3.7762482123        0.1409783489
 O        -8.9279696363        3.6669234063       -0.1196769381
 C        -7.0156602458        3.0214543418        1.2656676906
 C        -8.0376259220        2.0333495116        2.0998153129
 O        -7.7263994063        0.8478708657        2.2552352766
 C        -9.3621076164        2.5009116114        2.6751016528
 C        -9.6836272145        1.7781613444        3.9151988967
 C       -11.1650127587        2.0412488457        4.2779075187
 O       -11.6774648762        3.1333866667        4.1705981363
 C       -12.2354928446        0.9193293296        4.5954899689
 C       -12.3669228942        0.5175738912        3.0187298130
 O       -11.5599311917       -0.1866972868        2.5298978610
 C       -13.4827997445        1.2422183382        2.1774543221
 C       -13.4438644570        1.0563875823        0.6760640202
 C       -13.4480713434       -0.3181791617        0.0494521079
 O       -14.1226802726       -1.2012387365        0.4043502048
 C       -12.5862557340       -0.5233371234       -1.2119796252
 C       -11.2066683252        0.0820870158       -1.0203138361
 O       -10.9913324789        1.1800454440       -1.4544129950
 C       -10.0786352055       -0.8067526864       -0.4196862131
 C        -8.8060092887       -1.0729402115       -1.2964853742
 C        -8.1371479363        0.1433091750       -1.9497593796
 O        -8.2348123712        1.1742066449       -1.3673846617
 C        -7.3710880974        0.0365984495       -3.2757271168
 C        -8.5438087148        0.7304836135       -4.2046212870
 O        -8.6894169782        1.9234471737       -4.0773388771
 C        -9.1927657133       -0.0514208004       -5.3863749395
 C        -6.0822475895        1.0105208155       -3.2337078290
 C        -6.9410922864       -1.4149393385       -3.5722607771
 C       -12.5520605572       -2.1208113488       -1.4696220093
 C       -13.4718593552        0.2086407130       -2.3306727306
 C       -11.6000192853       -0.2557565445        5.4470365447
 C       -13.3813070118        1.5242931298        5.3673975789
 C        -5.9287988246        2.1020050533        0.7673467449
 C        -6.4342791133        4.0825033440        2.3706605261
 C       -10.3444620538        7.5810993768       -3.5125242792
 C        -8.5357460839        8.5321341459       -2.1204819131
 C        -8.5000816525        9.6756369910        3.9462472713
 C        -7.8781547555       11.7575319622        2.9223650221
 H        -4.8258587078        9.6115503015        1.9236075105
 H        -5.6022789164       10.9763428132        2.8123076181
 H        -5.3774248236       10.9908444611        1.0816857228
 H       -10.0961680741        7.8726921647        1.7115549760
 H        -8.7406391200        8.0895369279        0.7304221505
 H       -10.7612543831        9.5121950128       -0.8099418327
 H       -11.9355175074        8.5631126800        0.1956042466
 H        -6.9542413673        6.1092174193       -2.2536933392
 H        -7.4409731994        4.2764180709       -2.4884133727
 H        -7.1337095030        5.8271054586        0.2822757029
 H        -6.0472098555        4.6873888034       -0.4516121814
 H       -10.1058047603        2.4146270063        1.8942165992
 H        -9.2857903689        3.5925803319        2.7241149853
 H        -9.0059506670        2.1530985586        4.7121097025
 H        -9.4759581181        0.6549752761        3.8071155790
 H       -13.4139308753        2.2894920253        2.2465306920
 H       -14.5185348264        1.0887983471        2.5945463611
 H       -12.6303138645        1.5991132440        0.2151199743
 H       -14.1955243767        1.8013251393        0.4119978889
 H       -10.6185536626       -1.8022689989       -0.1297384251
 H        -9.7176725586       -0.3509154396        0.4869910907
 H        -9.2883044936       -1.6048527230       -2.1558297129
 H        -8.0628307332       -1.7843958624       -0.7735166789
 H        -8.8663621272        0.3720274087       -6.3043064549
 H       -10.3591317308        0.0007542356       -5.3548364924
 H        -8.9385432049       -1.0870695942       -5.3116842234
 H        -5.3740673966        0.8944635049       -2.3901279673
 H        -6.4438806080        2.0552387966       -3.1044626795
 H        -5.4908671102        1.0410750994       -4.1426388432
 H        -6.5632083100       -1.8703759291       -2.7074826126
 H        -6.3092906017       -1.4224489341       -4.4450739896
 H        -7.7789568879       -2.1081407366       -3.8248354214
 H       -12.6126349037       -2.6946288155       -0.5854932497
 H       -11.7226241417       -2.4030326759       -2.0040077373
 H       -13.4675447689       -2.3766538851       -2.0159553703
 H       -14.3623602489        0.4740207609       -1.8782600974
 H       -13.4923845271       -0.5450194911       -3.1329068019
 H       -12.9718398814        1.0828877958       -2.6881590210
 H       -11.1974350805        0.2216644187        6.3028576027
 H       -10.8045036136       -0.6437511816        4.8379912804
 H       -12.2041926366       -1.1404557483        5.7619009323
 H       -13.0421560180        1.9256259676        6.3087656542
 H       -14.0992731353        0.7548069078        5.5054477433
 H       -13.8300541976        2.2765255033        4.6042665300
 H        -5.2403268880        2.6252345530        0.1704019751
 H        -6.3127537720        1.2113420753        0.2653812664
 H        -5.3788372839        1.6003821065        1.5836746026
 H        -6.2945923259        3.6119305728        3.3097791253
 H        -7.1473864267        4.8938772184        2.5094669354
 H        -5.4808099420        4.4100739649        2.0222552855
 H       -10.4215582600        8.6490385298       -3.5216432357
 H       -11.3355421038        7.0896390310       -3.5470609785
 H        -9.9264456073        7.2988941952       -4.4666932821
 H        -7.8921026211        8.6952104671       -2.9183767882
 H        -8.0134070510        8.6337208949       -1.1975233270
 H        -9.1187223711        9.4308944176       -2.0766138350
 H        -8.5784337219        8.5817009388        3.8123399166
 H        -9.4637875048       10.1269778047        4.3255711287
 H        -7.7129086950        9.9175081693        4.6637734436
 H        -7.4161493016       11.8056575187        3.8684733313
 H        -8.7841093061       12.3069447469        3.1322706687
 H        -7.5410962864       12.5621517342        2.1682914277
 Na       -9.5211962227        2.6883754596       -2.2535902342
