117

 C        -5.4622614660       10.3369588350        2.0661100327
 C        -6.7050788043        9.5894723633        1.6890409239
 O        -6.6472934940        8.4141137508        1.3009861147
 C        -8.1650765616       10.2043917679        2.3597050667
 C        -9.2235619299        9.9846103009        1.3499419669
 O        -9.7209324264       10.8671940101        0.6498650132
 C        -9.7024669971        8.4670253965        1.0966851313
 C       -10.5386128014        8.4996534894       -0.1690133096
 C       -10.4730896706        7.1705515103       -1.2097266639
 O       -11.2103335358        6.2242025971       -1.1248137425
 C        -9.3571260761        7.2815932303       -2.4125586440
 C        -8.9048155832        5.8393401088       -2.5298106183
 O        -9.7902168014        5.0315150862       -2.8933553719
 C        -7.5966066876        5.3137619588       -1.9533139408
 C        -7.2873098278        5.1647630060       -0.4805494453
 C        -7.8899810479        3.9163257961        0.3675121841
 O        -9.0530842622        3.4506420217        0.1376311702
 C        -7.0415355182        3.2408353543        1.4648790332
 C        -8.0051613259        1.9433210406        2.0119096656
 O        -7.6726347833        0.7650115943        1.9811499444
 C        -9.3489542673        2.4186340275        2.6223775339
 C        -9.6384651122        1.9405057489        4.0943204875
 C       -11.1187779971        2.2881428409        4.3475919184
 O       -11.6020887254        3.3984250988        4.2463445117
 C       -12.0980555689        1.0757028610        4.5543274948
 C       -12.2912444400        0.6523900675        3.0238811348
 O       -11.4447567321       -0.0297270983        2.3505389056
 C       -13.5418898869        1.2086922632        2.3377941369
 C       -13.2675213364        1.2127570737        0.7885647514
 C       -13.5675484294       -0.1832312640        0.1958793852
 O       -14.2543718171       -0.8647187587        0.8754110304
 C       -12.6912226785       -0.6672006141       -1.0748646995
 C       -11.3186801204        0.1610832935       -0.9327047246
 O       -11.2011868344        1.2079327981       -1.5699120809
 C       -10.1721979412       -0.4335844249       -0.1515742450
 C        -9.1331814269       -1.1031117763       -1.0633420262
 C        -8.2909678215        0.0032650572       -1.7096839176
 O        -8.3590582003        1.1366847518       -1.2102506213
 C        -7.5541513785       -0.0515136500       -3.0871176792
 C        -8.6371750180        0.5898107800       -4.2281351104
 O        -8.7593474321        1.7826613328       -4.1613695254
 C        -9.2789008560       -0.2134986002       -5.4882334971
 C        -6.2982871246        0.9304889263       -2.8965347163
 C        -7.0722557113       -1.5152449894       -3.4818680400
 C       -12.5121518993       -2.2193927891       -1.1153586518
 C       -13.3743459509       -0.2412838638       -2.4301069914
 C       -11.5359120115       -0.2291987671        5.1781976879
 C       -13.5247012214        1.3203688826        5.1438933613
 C        -5.8012313855        2.5637777548        0.8639613745
 C        -6.6858200033        4.0836534685        2.6274857678
 C       -10.0609871872        7.5438512808       -3.7377564124
 C        -8.0932903747        8.0650946645       -2.1098083730
 C        -8.6754939600        9.3858554070        3.5920633634
 C        -8.0803081070       11.7562403373        2.5748187389
 H        -4.7210834570        9.8732414301        1.3427389072
 H        -5.3095345879       10.4378640290        3.1714520142
 H        -5.7529912199       11.4014313792        1.6615427816
 H       -10.2969261435        7.9673124739        1.9011657339
 H        -8.9050563108        7.7443172867        0.9303336770
 H       -10.4772097922        9.3509349062       -0.7722497534
 H       -11.5747428665        8.4517456523        0.0750435957
 H        -6.8077529295        6.0635787252       -2.2669941845
 H        -7.5366249535        4.3548585714       -2.3759486133
 H        -7.5820135513        5.9855349541        0.1840022551
 H        -6.2117471655        5.1316109068       -0.2530490890
 H       -10.1567792571        2.1222585126        1.9164958992
 H        -9.4118397151        3.4689929704        2.4648221386
 H        -9.0464933922        2.5817592995        4.6993592011
 H        -9.4503803092        0.9054456518        4.3010149028
 H       -13.9290091785        2.2100872437        2.6977763953
 H       -14.3420456947        0.5181790488        2.5344470858
 H       -12.2791673685        1.5611279122        0.4273497207
 H       -13.8667306113        1.9866853260        0.2707679217
 H       -10.5892681672       -1.1824568665        0.5085703601
 H        -9.6487146963        0.3257879447        0.5191060611
 H        -9.5966842762       -1.9470990442       -1.6020403039
 H        -8.4312246937       -1.4710558496       -0.3069250307
 H        -9.1221118065        0.5086650000       -6.3410744938
 H       -10.2776896512       -0.4196965540       -5.4172655111
 H        -8.7392406619       -1.1622775368       -5.7013411495
 H        -6.0902239616        0.9097325357       -1.8692418363
 H        -6.3176078294        1.9560726060       -3.2009701482
 H        -5.3890596490        0.6274441287       -3.4326201153
 H        -6.4319478368       -1.9676981646       -2.6111240386
 H        -6.6095757456       -1.5944688113       -4.4398784176
 H        -7.9379693587       -2.1759444557       -3.5664431133
 H       -11.9699994329       -2.6365527703       -0.1757390393
 H       -11.8385318730       -2.5144754089       -1.9760618645
 H       -13.4399359124       -2.6928341144       -1.1635844338
 H       -14.4479075168       -0.4996914515       -2.1658962005
 H       -12.9258981897       -0.7950441577       -3.1933959624
 H       -13.2590621374        0.8648526989       -2.5534170948
 H       -11.2936706666       -0.1097725149        6.2714349202
 H       -10.8154760188       -0.8152953015        4.6777317015
 H       -12.4308484938       -0.8956353769        5.0373675408
 H       -13.2520198387        1.8777905517        6.0190556131
 H       -14.0952162185        0.4220736767        5.3333518208
 H       -14.0284855292        1.8600057057        4.3968937685
 H        -5.0920626263        3.3421163367        0.5027053732
 H        -5.9185000591        1.7630852049        0.1241717580
 H        -5.3084786180        2.0914345407        1.6709426673
 H        -6.0905531110        3.3332102100        3.3087404386
 H        -7.5569096962        4.4893503444        3.1974385221
 H        -5.9486072905        4.9198264539        2.3015633149
 H       -10.5569227736        8.5658569622       -3.8073266789
 H       -10.6642351050        6.7128603174       -4.0196100803
 H        -9.3007318701        7.6929153309       -4.5669405953
 H        -7.3621107175        7.9578933111       -2.9604941158
 H        -7.5844037189        7.8926145534       -1.0996955747
 H        -8.1914446190        9.1615226041       -2.1521991037
 H        -8.9766291616        8.3495422253        3.3201992692
 H        -9.3495384158       10.0331102746        4.1102933151
 H        -7.8304985275        9.1344010887        4.3121038600
 H        -7.5294931561       12.0723945491        3.4941672268
 H        -9.0113463156       12.3794374510        2.6565228180
 H        -7.7812023973       12.2599546192        1.7417304852
 Na       -9.6694373582        3.0168059030       -2.2985122523
