117

 C        -5.3280393509       10.1812996631        2.0354666970
 C        -6.6446008033        9.3791366247        1.5276296911
 O        -6.5245506830        8.5306048740        0.7098763951
 C        -8.0748468734       10.0113789311        1.9559153655
 C        -8.9010069096       10.0009807942        0.6230341573
 O        -8.7616522879       10.7332313480       -0.3311272267
 C        -9.8854957034        8.8560772614        0.5860574472
 C       -10.4980768617        8.4027887305       -0.6838944546
 C       -10.1418359037        7.0950723820       -1.4400624590
 O       -10.8175274909        6.1088203605       -1.3372349935
 C        -8.8270337248        7.0345669726       -2.6470114422
 C        -8.5265678204        5.4919932174       -2.4770490000
 O        -9.1417686103        4.6777211686       -3.1414504893
 C        -7.2717041064        5.0495198906       -1.7877578241
 C        -7.5503785460        5.4209689769       -0.2605942900
 C        -8.2778205722        4.2387835203        0.4225756168
 O        -9.2761670710        3.7411514382        0.0918987918
 C        -7.4761500589        3.6524154373        1.6543356558
 C        -8.0767707751        2.2261015199        2.1083662105
 O        -7.3586866238        1.2859335524        2.0342151204
 C        -9.4789164376        2.1851409910        2.8049654275
 C        -9.4117028048        2.2584969440        4.2608924234
 C       -10.9133258117        2.5591263149        4.6846851517
 O       -11.3839883830        3.5462162283        5.2031766917
 C       -12.0469407995        1.2435105589        4.4591467754
 C       -12.6199793522        0.9777888269        2.8532082295
 O       -12.0432997012        0.0407184076        2.3663277986
 C       -13.6381944368        1.8413011066        2.2740781929
 C       -13.7431889238        1.4524691286        0.7324016715
 C       -13.9507786760       -0.1886326045        0.6302229235
 O       -14.7788931047       -0.8021631256        1.2841963252
 C       -13.1492500149       -0.8298172940       -0.6710468841
 C       -11.7101163946        0.0132542805       -0.9939291947
 O       -11.6291436128        0.7786641478       -1.9548838458
 C       -10.4502637670        0.0411301817       -0.0493351504
 C        -9.0811492345       -0.6401320077       -0.6770151119
 C        -8.1557510518        0.1891726212       -1.6775484472
 O        -7.8965833108        1.3163256663       -1.3625415083
 C        -7.5835617921       -0.4475756702       -3.1609074072
 C        -8.6903180440        0.0838797997       -4.0495040664
 O        -9.3945535975        1.0710515006       -3.6950808961
 C        -8.8231932768       -0.5243948454       -5.3807744770
 C        -6.1407537480        0.1392649595       -3.4593561600
 C        -7.3200015384       -1.8865543194       -3.2490904244
 C       -12.6968076130       -2.1870396283       -0.2256370290
 C       -14.1740831705       -0.7505256421       -1.8643868500
 C       -11.2317180010       -0.0728571710        4.8385237497
 C       -13.3560992675        1.6004692855        5.3938686817
 C        -5.9517993293        3.3340576874        1.4336193165
 C        -7.4225420146        4.7577972012        2.8366452773
 C        -9.2322089294        7.3187870461       -4.1189454965
 C        -7.6698015635        8.1267116557       -2.1685983005
 C        -8.7083398129        9.1732542852        3.0439012409
 C        -7.8365775324       11.4438313825        2.4856571532
 H        -4.4838314395        9.5149131494        1.8349436212
 H        -5.1924925345       10.4117428914        3.1847857544
 H        -5.3174924280       11.0622038866        1.3219784177
 H       -10.6735330031        9.1883020868        1.1313540474
 H        -9.2435864865        8.1622327712        1.1756435775
 H       -10.2298478842        9.1583368731       -1.3541594034
 H       -11.5833159618        8.4012335841       -0.5356346297
 H        -6.4795321219        5.5620476383       -2.2489360306
 H        -7.1370430220        3.9338851219       -1.9076680319
 H        -8.0908202583        6.3709541265       -0.0786811001
 H        -6.6830124686        5.5323422295        0.3467980345
 H       -10.0299866547        1.2573733058        2.5135402656
 H        -9.9647795290        3.0509935183        2.3624746012
 H        -8.8026890384        3.0352730059        4.6465531379
 H        -9.1522817829        1.2891516178        4.6803755418
 H       -13.1409661010        2.7770560290        2.4214981513
 H       -14.6506525472        1.9087789161        2.8017156599
 H       -12.7970680190        1.7561254389        0.2735568849
 H       -14.6164126016        1.9847181130        0.3053947009
 H       -10.8015312565       -0.4990670929        0.8908474950
 H       -10.3153717694        0.9530473150        0.3802654429
 H        -9.4326466683       -1.5635655716       -1.0154515855
 H        -8.4748166841       -0.8294712878        0.2437150405
 H        -9.6603090306       -1.1317777721       -5.6219325753
 H        -7.8970518287       -1.2076769483       -5.5555097530
 H        -8.6886221347        0.2981171456       -6.0126052178
 H        -5.2991695852       -0.4682831562       -3.1383517655
 H        -6.0598206032        1.1058242158       -2.9933659765
 H        -5.9389616492        0.3614068359       -4.5023209220
 H        -6.6269823359       -2.2233101216       -2.5798378013
 H        -6.7276540183       -2.0471018873       -4.1658500583
 H        -8.3020637110       -2.4314071950       -3.3506662977
 H       -12.3671353260       -2.1080610750        0.7798419922
 H       -11.9818808422       -2.7448700602       -0.8582774887
 H       -13.6559212963       -2.9013845972       -0.2340312564
 H       -13.9314630413       -1.5522898986       -2.4747598057
 H       -13.8873987261        0.2238168125       -2.3598940263
 H       -15.1554769207       -0.7035967689       -1.4050380347
 H       -10.6511367624       -0.0213752357        5.7787630673
 H       -10.4060841669       -0.1221792493        3.9948733424
 H       -11.7753730121       -1.0028803369        4.8619527978
 H       -13.3889772239        0.8456154001        6.1911146038
 H       -14.2495197046        1.6151691553        4.7869509765
 H       -12.9675753213        2.4464900794        5.9646739630
 H        -5.3915137662        4.1490990844        1.1000101369
 H        -5.8686064186        2.6594195231        0.5730121208
 H        -5.5056696229        2.9736381898        2.3720921631
 H        -7.2147489881        4.1665472858        3.7473950505
 H        -8.4829975838        5.2202274058        2.7245664574
 H        -6.7528215229        5.6396813642        2.5880966900
 H        -9.4801370893        8.3818965153       -4.3734059430
 H       -10.2226212182        6.7851200002       -4.3158931155
 H        -8.4015653750        7.0994070367       -4.7902803745
 H        -6.6428036133        8.1036383478       -2.7020462739
 H        -7.3936266762        8.0215034342       -1.1252072298
 H        -8.1615403281        9.1426305191       -2.3903158211
 H        -8.6429624616        8.1157179561        2.7242230733
 H        -9.7144789753        9.5978868154        3.4000979763
 H        -8.1264905803        9.0925042629        3.9913191738
 H        -7.1338335075       11.5655554069        3.2717828444
 H        -8.7330374333       11.8634134046        2.8289276138
 H        -7.4807412874       12.2237970977        1.6922108963
 Na       -9.8413412925        2.6455655603       -2.2316490996
