117

 C       -11.8029553745        0.3403289287        8.8305110773
 C       -10.8348275048       -0.2673914430        7.6786102138
 O       -10.4873393251        0.4821237391        6.8011893822
 C       -10.2706127849       -1.8108327377        7.7930225011
 C        -9.6592107491       -2.1667383878        6.3982580458
 O       -10.2741108293       -2.8571401340        5.6159286348
 C        -8.2800213730       -1.5717462675        5.9835426806
 C        -8.1972589366       -1.4635566764        4.4637871483
 C        -6.7890079684       -1.0829003856        3.8872609734
 O        -5.7697504860       -1.1305041265        4.4900047675
 C        -6.7875176299       -0.3739365833        2.4165345624
 C        -7.2048747265        1.2032794858        2.6769187966
 O        -7.7573930568        1.5850285851        3.7168985277
 C        -6.8276682320        2.3105531877        1.6267913281
 C        -7.0444741271        3.7465533150        2.1378682994
 C        -8.2362315821        4.3995409973        1.4752174470
 O        -8.1109285158        4.6523503294        0.2671146345
 C        -9.5368583383        4.8683209577        2.1454203973
 C       -10.7386565115        4.7967728041        1.1695397440
 O       -10.9087133743        5.6461249979        0.3002939852
 C       -11.8171544025        3.6738532919        1.3695191900
 C       -12.3783794984        3.4548830527       -0.0580888025
 C       -11.3573762460        2.9829684414       -1.0206183966
 O       -10.1642062891        2.7868704536       -0.7000305254
 C       -11.8780145923        2.8473037852       -2.4920378782
 C       -10.8636616099        3.3406935190       -3.4470411625
 O       -10.0982705652        4.2260315623       -3.1912768932
 C       -10.7010311600        2.7183207295       -4.9448734965
 C       -10.2665101544        3.7748225949       -5.9973087423
 C       -11.3004739021        4.8606699863       -6.3187979973
 O       -12.2913372404        4.9279143047       -5.5855952785
 C       -11.0272964082        5.9686244239       -7.3439069846
 C       -10.7305697987        7.2683261080       -6.3994951203
 O        -9.5800616319        7.6330667003       -6.2470556968
 C       -11.7982922342        7.8015357676       -5.5131687304
 C       -11.2058862994        8.9026055079       -4.6132922297
 C       -10.5244801282        8.3706565139       -3.3577254223
 O       -10.6119492224        7.1883517841       -3.0509259213
 C        -9.7191362869        9.3906245798       -2.5148350702
 C        -8.2513314023        8.8412073821       -2.6202158686
 O        -7.9346573685        7.8374649605       -2.0161435280
 C        -7.3091707901        9.3935894909       -3.6960352560
 C       -10.0313910450       10.8920238062       -2.9606879649
 C       -10.1620498499        9.2391803392       -0.9497671912
 C        -9.8726035011        5.9274130533       -8.3989722483
 C       -12.3406722091        6.3773206514       -8.1300567493
 C       -12.3045718344        1.3367733351       -2.5223673867
 C       -13.0929264202        3.8560520298       -2.7449364883
 C        -9.7069377820        4.0265106508        3.4799153840
 C        -9.2940979589        6.3365884609        2.6157652765
 C        -5.3094266544       -0.3533081163        1.8080665913
 C        -7.8001122439       -0.9473349255        1.3191562018
 C        -9.1461838461       -1.7952676977        8.8765135843
 C       -11.4787208373       -2.6821165225        8.1959639409
 H       -11.6897625240       -0.2106928040        9.7254341901
 H       -12.8516632935        0.2525043882        8.6643945451
 H       -11.5013457553        1.3151381063        8.8487587123
 H        -7.5179102953       -2.2460105522        6.4883675741
 H        -7.9661995391       -0.6795870969        6.5435926324
 H        -8.8634258930       -0.6200426207        4.1241945008
 H        -8.5741453197       -2.3875230805        3.8961088644
 H        -7.4368615953        2.1654799059        0.7085078715
 H        -5.7679103933        2.1129740814        1.2710516253
 H        -6.1076235332        4.2764411666        1.8099901571
 H        -7.1455830924        3.8301976523        3.2441073280
 H       -12.5671268853        4.1499498718        2.0678149113
 H       -11.4204167879        2.6360710846        1.7408148980
 H       -12.5973597866        4.5305464107       -0.4477394753
 H       -13.2888085362        2.8594074839       -0.1196991977
 H       -11.6364079148        2.2854285188       -5.2195925033
 H       -10.0434983331        1.9166857063       -4.8702821297
 H       -10.1580602625        3.2707303530       -6.9547168587
 H        -9.3276664904        4.1742453003       -5.7242836465
 H       -12.1822525606        7.0091751940       -4.8993035504
 H       -12.6996041784        8.1716205152       -5.9783500775
 H       -11.9706421173        9.4972887015       -4.1916307437
 H       -10.5331845814        9.5726820393       -5.1261601876
 H        -7.4577549313       10.4292105971       -4.0266211467
 H        -7.2534804243        8.7823490871       -4.5835376229
 H        -6.3312349671        9.2703370583       -3.1705309497
 H       -11.0743590069       11.1500345531       -2.8764370388
 H        -9.7161975260       11.0850822649       -4.0524173563
 H        -9.4269586313       11.4707468521       -2.3382192731
 H        -9.5399703678        8.4412284744       -0.5345174847
 H       -11.2589512933        8.9435974177       -1.0023148498
 H        -9.9401735451       10.2143165996       -0.4255383891
 H        -9.7814243916        4.9467677598       -8.8534617634
 H        -8.8351345257        6.1570161406       -7.9629741512
 H       -10.0314767598        6.6401369503       -9.2157359932
 H       -12.7912808312        5.5356576950       -8.7018545369
 H       -12.1170768398        7.2377198829       -8.7864245344
 H       -13.0958870051        6.7202036726       -7.4303406192
 H       -13.1396340280        1.1116691829       -1.8556398453
 H       -11.3879646952        0.8407079263       -2.2763684690
 H       -12.6922152381        1.0251661802       -3.4979040638
 H       -12.6778355219        4.8890925606       -2.4008550399
 H       -13.9451788186        3.5715200954       -2.0582168122
 H       -13.2590493919        3.7946125114       -3.7967304806
 H        -9.7212115038        2.9372142598        3.2966239819
 H       -10.6792583647        4.3048173613        4.0222633175
 H        -8.9130798176        4.3284029374        4.0467340456
 H        -9.1101707991        7.0776291547        1.7739940246
 H        -8.3665792669        6.3647441056        3.1874794882
 H       -10.1690962645        6.7318918728        3.1552102399
 H        -4.8573379417       -1.3220562757        1.8101809358
 H        -4.6597183936        0.4197120673        2.2768253376
 H        -5.3461290481       -0.1518542813        0.7219310349
 H        -8.8740613540       -0.9938017032        1.6603178631
 H        -7.5841650779       -1.9561632956        0.9601595160
 H        -7.9187949454       -0.3757808468        0.3603412754
 H        -8.4356711789       -1.0308104552        8.7631334454
 H        -8.7565624255       -2.7628993052        9.0735801364
 H        -9.6393531557       -1.6213940417        9.8309277013
 H       -12.2704913656       -2.6394039655        7.4841268560
 H       -11.8751628019       -2.4210918340        9.1813177410
 H       -11.2212358351       -3.6918828257        8.4176542368
 Na       -9.3786126249        5.8319330373       -1.4947778985
