117

 C        -5.2716789489        9.9641275019        1.8787393711
 C        -6.5829286270        9.3002837136        1.3709381122
 O        -6.5381580793        8.2016965923        0.8921239097
 C        -7.9765694754        9.9015616822        1.7131122781
 C        -8.7241816607        9.8406343048        0.2689368856
 O        -8.3130467001       10.5732726101       -0.6270117653
 C       -10.0011641198        8.9304228407        0.0973352822
 C       -10.0502011014        8.7071609928       -1.3852205416
 C        -9.9520167362        7.2291964396       -1.7640526540
 O       -10.6556607333        6.3769562264       -1.3204528523
 C        -8.7566660522        6.9615858657       -3.0146875693
 C        -8.2813890062        5.4891058372       -2.7688240719
 O        -8.8619494889        4.3871347101       -3.0931755649
 C        -7.1550356005        5.5181297778       -1.7159559284
 C        -7.4904068630        5.4611316329       -0.1760861808
 C        -8.0442256326        4.1522173277        0.4650081112
 O        -8.9742671836        3.5196257065        0.0374000650
 C        -7.4644793016        3.7690644907        1.8930159654
 C        -8.1209590644        2.3213839632        2.2904625821
 O        -7.3070675909        1.4254006348        2.3722868724
 C        -9.5951191889        2.1906185724        2.6646245328
 C        -9.7069149560        2.4020269752        4.2043362462
 C       -11.2043670451        2.4269965110        4.9029863223
 O       -11.5024629065        3.4825608428        5.3908998819
 C       -12.2349832972        1.2839623949        4.7025731528
 C       -12.6393085003        1.0262986204        3.2105196932
 O       -12.0300377451        0.2299914316        2.4750552819
 C       -13.5382711431        1.9641962599        2.5419976952
 C       -13.6228591645        1.7057359211        0.9772711003
 C       -13.7845486982        0.1428952726        0.7383486098
 O       -14.6461245638       -0.3825915870        1.4354134344
 C       -12.9712477315       -0.6304399231       -0.4131797206
 C       -11.7410798526        0.2414266610       -0.8839080779
 O       -11.8349726482        1.0550363343       -1.7614937435
 C       -10.3860757793        0.1407271648       -0.2127473177
 C        -9.4125095171       -0.8015649237       -0.8735127764
 C        -8.4376644906        0.0575443129       -1.7307308075
 O        -7.9002526453        1.0937682494       -1.3852814790
 C        -7.8103515823       -0.5780963874       -2.9933655663
 C        -8.8266553270       -0.1066182990       -4.2025926067
 O        -9.7715774461        0.6050726815       -3.8977092083
 C        -8.5817333673       -0.6783906859       -5.6439782605
 C        -6.5052577212        0.0022808500       -3.3694385443
 C        -7.5509634393       -2.1099701706       -2.7716885059
 C       -12.5442460311       -1.9753575148        0.1458053069
 C       -13.9799537474       -0.7591609265       -1.6015382258
 C       -11.4791418401       -0.0682393422        5.1053258261
 C       -13.4786745822        1.5283629094        5.5266822391
 C        -5.9436896298        3.6924970490        2.0036413037
 C        -7.9446232437        4.8669958607        2.8561867528
 C        -9.5790007727        7.0816529096       -4.3062912736
 C        -7.6091910826        7.9889043197       -2.8649480515
 C        -8.4661226514        9.0592132273        2.9023818134
 C        -8.0078015995       11.3845229764        1.8735339615
 H        -4.4788172550        9.2765786892        1.6059758125
 H        -5.0913131739       10.1706680180        2.9873803476
 H        -5.2107481008       10.7772966799        1.2178413866
 H       -10.8176176847        9.4696463270        0.5433626747
 H        -9.7271257885        7.9273167325        0.5634252140
 H        -9.2535914966        9.2310887880       -1.9248343148
 H       -11.0582915302        9.1326508647       -1.7445695074
 H        -6.3776377656        6.2629942050       -1.8537557803
 H        -6.4784752903        4.6231611284       -1.9303643797
 H        -8.1362750090        6.3180810556        0.2165452231
 H        -6.4938190166        5.6409575262        0.2308930796
 H        -9.8808549945        1.1278294112        2.4180392239
 H       -10.0570328646        2.9420565465        2.1104699501
 H        -9.2368352538        3.1723565667        4.6866686487
 H        -9.2554435139        1.4453408567        4.6287752073
 H       -13.0165492955        2.9301596750        2.6037975316
 H       -14.4809014566        2.1232805071        3.0244362331
 H       -12.7004507867        2.1929014385        0.6114235431
 H       -14.5912545790        2.1448833898        0.6928216918
 H       -10.8435613608        0.0015071700        0.8873249432
 H        -9.9230694134        1.1159875047       -0.0738464326
 H       -10.0333841747       -1.5326309859       -1.4531059107
 H        -8.7507724666       -1.4442065387       -0.1519270785
 H        -7.8090117218       -1.4268035177       -5.6034456305
 H        -8.0365342374        0.1757703976       -6.2252010953
 H        -9.4690495805       -0.8648706133       -6.1910102180
 H        -5.8390094500        0.2778089397       -2.5761557229
 H        -6.6787999441        0.9334716748       -3.9006186701
 H        -5.8044383931       -0.6200260101       -3.9895167705
 H        -6.9021795700       -2.1449882348       -1.8844569107
 H        -7.0118711697       -2.5539035726       -3.5655429489
 H        -8.5111721914       -2.6598035846       -2.5132143730
 H       -11.5908704357       -1.7851998893        0.4996607379
 H       -12.4522701639       -2.6918448920       -0.5860242526
 H       -13.1659448650       -2.4920672333        0.9158543342
 H       -13.3738493839       -0.7494131387       -2.4928804363
 H       -14.6208878936        0.0924699087       -1.5895184505
 H       -14.4456787402       -1.7334169744       -1.4077180702
 H       -11.0638012428       -0.1002185794        6.0549054989
 H       -10.6533930115       -0.3152607694        4.3773214171
 H       -12.2325033819       -0.8542353053        5.1081654159
 H       -13.5764877374        0.9348799484        6.3645036304
 H       -14.2936546566        1.3080599032        4.9338984302
 H       -13.2336259452        2.4947845814        5.9356993919
 H        -5.5036756277        4.5805171611        1.5944049798
 H        -5.4540224580        2.8241688268        1.4881643604
 H        -5.8366890913        3.7668976699        3.0720489138
 H        -7.3007038917        4.8150873435        3.6723064228
 H        -8.9671164428        4.6652195453        3.1240956939
 H        -7.7122937274        5.7874688489        2.3585588498
 H       -10.1750867311        7.9909836529       -4.1858557096
 H       -10.3473354246        6.3727426166       -4.5379695476
 H        -8.9190271229        7.1956972748       -5.1248639964
 H        -6.7515336914        7.7031341096       -3.4224905125
 H        -7.2390455725        8.0109760314       -1.8549248525
 H        -7.9882139086        8.9511815788       -3.1222895118
 H        -8.6349804404        7.9770441452        2.7549393822
 H        -9.4496693048        9.4811200806        3.1332150463
 H        -7.8055937173        9.2618271090        3.7482903838
 H        -7.5260500214       11.8333620860        2.7409472460
 H        -9.0916639270       11.6482501807        1.8487265140
 H        -7.2558956006       11.8304681947        1.0810945575
 Na       -9.7946263841        2.4961654597       -2.1004918997
