117

 C        -5.2918090387        9.9170059175        1.7675085001
 C        -6.5327961286        9.1559264326        1.2461779425
 O        -6.4688683419        7.9888132773        0.9373110443
 C        -7.9289126267        9.9908202101        1.5770894544
 C        -8.6109039943        9.8699662898        0.2328692033
 O        -8.1612411059       10.4833595807       -0.6659891747
 C        -9.9356927396        9.0724249246        0.0182038745
 C       -10.0200068433        8.6472243232       -1.4755088834
 C        -9.8304291279        7.2226127836       -1.9324297944
 O       -10.5334384519        6.4020504694       -1.3642877415
 C        -8.8672521537        6.9200422676       -3.0491503460
 C        -8.2654474158        5.4551242925       -2.5953535980
 O        -8.8182590012        4.4853134761       -3.0746996581
 C        -7.0357895404        5.3896781755       -1.7026371475
 C        -7.5506397033        5.3798722720       -0.1555964045
 C        -8.0188443089        4.0545580540        0.4259788393
 O        -8.8230715788        3.3528699417       -0.0593737478
 C        -7.4342869585        3.8737038474        2.0182317685
 C        -8.0980646787        2.4617065144        2.3808712910
 O        -7.3824814108        1.5168569694        2.4085900329
 C        -9.6157988104        2.2060977267        2.7530899199
 C        -9.8746980711        2.3033230172        4.1965006351
 C       -11.2786016859        2.4021295314        4.7335169543
 O       -11.5767151389        3.3886432810        5.3426595366
 C       -12.4144028826        1.1143671996        4.8047603204
 C       -12.5145520896        1.1177626692        3.2226129043
 O       -11.7964433981        0.3616319209        2.6510951207
 C       -13.4332333696        2.1923860662        2.5400344506
 C       -13.4291615586        1.7729319675        1.0054200366
 C       -13.8641642821        0.2722850943        0.8335276576
 O       -14.6232396751       -0.3834236658        1.4228838082
 C       -12.8781015452       -0.4197867227       -0.3950689580
 C       -11.7502443080        0.4984862583       -0.6908634028
 O       -11.7222896919        1.2723148224       -1.6532653516
 C       -10.4017938984        0.1940254119        0.0263888757
 C        -9.6202847952       -0.7402879338       -0.9553666635
 C        -8.4776337412       -0.0580919403       -1.6513799326
 O        -8.1998589972        1.0614642195       -1.2926940730
 C        -7.8805446963       -0.6718110084       -2.9938067516
 C        -8.8659011649       -0.2929844730       -4.1855888095
 O        -9.7908603785        0.5770291736       -4.0804267753
 C        -8.6055936782       -0.7037029540       -5.5862830970
 C        -6.4904423154       -0.0233330324       -3.4151131238
 C        -7.6389077120       -2.2138543011       -2.7884843533
 C       -12.3651069742       -1.7854072184        0.1667165709
 C       -13.9128420661       -0.7982313177       -1.6476137379
 C       -11.5713064907       -0.1001527552        5.2888266276
 C       -13.6011307071        1.4882421610        5.7925240972
 C        -5.9498174000        3.7242320715        2.2183008823
 C        -7.9907802302        5.0770598592        2.9053616661
 C        -9.6390740285        7.0443977521       -4.5124166319
 C        -7.7255657004        7.8662734904       -3.2414234854
 C        -8.6294449513        9.1207911422        2.6417950659
 C        -7.9819871064       11.4580014649        1.8401079494
 H        -4.3606483446        9.3262585972        1.7552639795
 H        -5.4792213698        9.9961577840        2.9190263681
 H        -5.2047746892       10.9784558278        1.2807897222
 H       -10.6246302808        9.7590580553        0.3702982324
 H        -9.8612449577        8.0701861482        0.5098384388
 H        -9.3626114211        9.2255738300       -2.1075295044
 H       -11.0709443118        8.8732094747       -1.7899643294
 H        -6.2955588959        6.1239192238       -1.8134867229
 H        -6.4240484016        4.4945233452       -2.0526397819
 H        -8.5060051036        6.0169567574       -0.1192136371
 H        -6.8126298056        5.8983791402        0.4564469110
 H        -9.6793283901        1.2443178800        2.3129379135
 H       -10.2387599966        2.9885948842        2.3287830159
 H        -9.4003243896        3.1908520794        4.6575012191
 H        -9.5337533471        1.5330368133        4.8042817542
 H       -13.1667473451        3.1908194076        2.7179328016
 H       -14.4921358734        2.1050982111        2.9658825824
 H       -12.3969320591        1.9303901233        0.7420223709
 H       -14.2065109197        2.2841354493        0.4083466277
 H       -10.5754060954       -0.2440742193        1.0113272022
 H        -9.8872870486        1.1301008861        0.2717896519
 H       -10.3537752483       -1.0847576830       -1.7053935374
 H        -9.3693373544       -1.7116356316       -0.3660031116
 H        -7.5807053070       -1.0548126208       -5.7449149891
 H        -8.6902168787        0.2339007752       -6.1826433105
 H        -9.3837312353       -1.3722897093       -5.9706236142
 H        -5.9445997636        0.2990982381       -2.5040960774
 H        -6.6922150826        0.9678020309       -3.8235021347
 H        -5.7250174187       -0.5340241951       -3.9021218094
 H        -7.3032237718       -2.2621187149       -1.8185349409
 H        -6.7581790991       -2.3921997562       -3.4710028087
 H        -8.4012701583       -2.9910816731       -2.8906225058
 H       -11.4046912516       -1.8304574439        0.5653615190
 H       -12.4219817323       -2.4854658998       -0.6648480584
 H       -13.1233780803       -2.2284339131        0.8324445314
 H       -13.2176529164       -0.9639948719       -2.4042592810
 H       -14.4280854271        0.1679517882       -1.9126028676
 H       -14.4444967184       -1.6650884218       -1.4330387998
 H       -10.9008742360       -0.0190118710        6.1471461089
 H       -10.9260114144       -0.3887487781        4.3567326732
 H       -12.1992063560       -0.8941982879        5.5263003098
 H       -13.4487539134        1.1208778619        6.7889590093
 H       -14.4602422039        0.9712151196        5.4919797197
 H       -13.5133737477        2.4857295765        5.8777982598
 H        -5.4625289418        4.6711514076        2.1144333857
 H        -5.5991197314        3.0644117505        1.4479940292
 H        -5.8249660771        3.3739314093        3.2644893834
 H        -7.4903940997        4.9790886168        3.8602746557
 H        -9.1125491245        4.9489681380        3.0200331164
 H        -7.4979348889        5.9480830517        2.4386067239
 H       -10.1010896879        7.9989047739       -4.5257582997
 H       -10.5107170433        6.3603796361       -4.7330948391
 H        -8.9170950047        6.8773257549       -5.2697792187
 H        -6.8818095616        7.2871791099       -3.6481675661
 H        -7.4193441647        8.2317920107       -2.3214462043
 H        -8.0896200213        8.7527933618       -3.8563592798
 H        -8.5248874296        8.0513610409        2.4805870020
 H        -9.7813161588        9.2180870897        2.7527798431
 H        -8.1068885496        9.4520318904        3.5274427828
 H        -7.3361022203       11.6685677776        2.7692976665
 H        -9.0541127207       11.6559510681        2.0755607804
 H        -7.4433155151       12.0779942208        1.1750127403
 Na       -9.7850380458        2.3078594321       -2.1080246029
