117

 C        -5.2162995627        9.9363426660        1.6761082097
 C        -6.5126325225        9.1322955903        1.5207548477
 O        -6.4974020278        7.9982793407        0.9548621451
 C        -7.8214639670        9.9037304104        1.4991851541
 C        -8.5216680262        9.8720115953       -0.0257568044
 O        -8.0147578564       10.4222172295       -0.9723953392
 C        -9.8943911357        9.0777658237       -0.2413689570
 C       -10.2474499206        8.8359172926       -1.7170143160
 C        -9.8866778260        7.2880514765       -2.0199856538
 O       -10.3409047409        6.3373610376       -1.4120755499
 C        -8.7695072641        6.8858193435       -3.1919574175
 C        -8.3164832137        5.3940347324       -2.7326072333
 O        -8.8824475848        4.4029051669       -3.0297732279
 C        -7.2039582083        5.1623863458       -1.6716274984
 C        -7.5505858828        5.3964136858       -0.1629589356
 C        -7.9520545434        4.1382656623        0.5661482002
 O        -8.5560075840        3.1831676558       -0.0234126281
 C        -7.5720841515        3.8934164058        2.0621439377
 C        -8.1223617478        2.4948780779        2.5476684030
 O        -7.3738576698        1.5127890285        2.4777462076
 C        -9.6770944255        2.3777828377        2.7685537734
 C        -9.8702496677        2.1659274237        4.3377967855
 C       -11.2945692437        2.4083054343        4.9968936718
 O       -11.8683696467        3.4647680638        5.3097200005
 C       -12.2789690053        1.1602590978        4.8739936462
 C       -12.5700231301        1.1166646921        3.3650377629
 O       -11.7378224173        0.5227697784        2.7092470083
 C       -13.4271925558        2.0759994823        2.6425500343
 C       -13.3953794080        1.8241907196        1.1113283998
 C       -13.7015529144        0.4156621753        0.7621470404
 O       -14.5412316691       -0.2490983595        1.3583433695
 C       -12.8195325513       -0.3232212455       -0.3335930429
 C       -11.6946273860        0.5580612949       -0.6468826194
 O       -11.7660016004        1.5156759638       -1.4815172441
 C       -10.2944858070        0.1973510747        0.0645020069
 C        -9.7862189342       -0.7947187769       -1.0408513723
 C        -8.6006128287       -0.1097453274       -1.7303838042
 O        -8.1753433381        0.9633739180       -1.3136291040
 C        -7.9287126969       -0.6894986489       -2.9451710432
 C        -8.8926806445       -0.3280506207       -4.2103041628
 O        -9.6906385556        0.5234562662       -3.9414140107
 C        -8.5787784673       -0.8927126291       -5.6285627218
 C        -6.6373031511        0.0547113737       -3.2924030550
 C        -7.8305348762       -2.2788041709       -2.8965650216
 C       -12.4957113896       -1.7749649677        0.2134942912
 C       -13.7329778869       -0.5858099740       -1.5420454854
 C       -11.7199071954       -0.1281793423        5.4984990233
 C       -13.5386980687        1.4395302771        5.7638840963
 C        -6.0125271869        3.8050328323        2.2207269794
 C        -8.1451610989        5.2031365431        2.8474137392
 C        -9.6514863952        6.6831662882       -4.4311082980
 C        -7.6671958008        7.9288020289       -3.5722569146
 C        -8.8423731284        9.1460389702        2.5151720248
 C        -7.7173829326       11.4318571474        2.0200729325
 H        -4.2301498005        9.3522295623        1.5262192671
 H        -5.1486593905       10.1187579731        2.7362661689
 H        -5.3126362461       10.9451048287        1.1259557073
 H       -10.5073345363        9.8625780858        0.2896215196
 H        -9.8621617331        8.1521144989        0.1898353174
 H        -9.6266665472        9.4248360474       -2.3963185494
 H       -11.2450497907        9.0690775150       -1.8767213657
 H        -6.3191138724        5.8181738357       -1.8376810617
 H        -6.7623399719        4.2647091909       -1.9396519667
 H        -8.4071921241        6.0469064966       -0.1735227549
 H        -6.7155567490        5.9822126636        0.3083184801
 H        -9.7792737473        1.5249809169        2.1586144065
 H       -10.2471643128        3.2952249209        2.4444400740
 H        -9.2479488988        2.9552128360        4.8747233845
 H        -9.5352609886        1.2457462070        4.7301163335
 H       -12.9581770755        3.0411900281        2.9122027786
 H       -14.4830818942        2.2355232005        2.9288484712
 H       -12.3788499926        2.0361321869        0.8314138297
 H       -14.1659814629        2.4229655281        0.6600192574
 H       -10.2138924075       -0.1751783223        1.0303109217
 H        -9.7584231004        1.1428464273       -0.0853582395
 H       -10.5562269816       -1.1948400014       -1.6983335392
 H        -9.5132872693       -1.6193175113       -0.4764303073
 H        -7.4801611325       -0.8647478138       -5.7679302410
 H        -9.0154371897       -0.4629507577       -6.4421660926
 H        -8.9079792959       -1.9809884449       -5.4752445372
 H        -5.9209179172        0.0675101961       -2.4701178807
 H        -6.7580375260        1.1183380407       -3.4730605058
 H        -6.0110924918       -0.4499079752       -3.9928666085
 H        -7.6926757887       -2.6474067620       -1.8321165544
 H        -7.0656784670       -2.5282621133       -3.6483774823
 H        -8.7124646948       -2.7658892698       -3.1717275437
 H       -11.7057423637       -1.7700542430        1.0918545385
 H       -12.1544834677       -2.4440963134       -0.6547908900
 H       -13.3919210702       -2.2194910589        0.4788834659
 H       -12.9680325642       -1.1198087952       -2.1360645016
 H       -13.8369641451        0.3609904546       -2.0365440309
 H       -14.5745601102       -1.2151300026       -1.3332247735
 H       -11.0944807051        0.0278686456        6.4627226259
 H       -11.1316165715       -0.6539173106        4.8647290137
 H       -12.5909977203       -0.7782433840        5.8204627464
 H       -13.2588848328        1.3588013166        6.8185388646
 H       -14.0735323363        0.4870514225        5.6783124294
 H       -13.9636463975        2.4626204153        5.6300386231
 H        -5.5631881365        4.8222603179        2.3189478759
 H        -5.6983420725        3.3768378425        1.3150088729
 H        -5.7647287594        3.1891084203        3.0654314554
 H        -8.0206910853        4.9240057674        3.9616841177
 H        -9.2166316961        5.3641162506        2.6277277922
 H        -7.3078747049        5.9103891645        2.6501059999
 H       -10.2038200374        7.5518813064       -4.7874227187
 H       -10.4163029505        5.9927481245       -4.0990075403
 H        -9.1413873165        6.0667653098       -5.2172315996
 H        -6.7870071285        7.3739731620       -4.0009326402
 H        -7.3626909986        8.4467339754       -2.5851783615
 H        -8.1281999405        8.6879768587       -4.2078711710
 H        -8.9172790480        8.0182713033        2.4340117674
 H        -9.9404121526        9.3209734385        2.3905186119
 H        -8.4209259608        9.5003056177        3.4671775410
 H        -6.9686895099       11.4213783883        2.8447251438
 H        -8.6843184604       11.7054037239        2.4123095292
 H        -7.2583880758       12.1371893937        1.4299181987
 Na       -9.7305012145        2.2823121618       -2.2325374054
