117

 C        -5.1558200606        9.8914955538        1.6004835627
 C        -6.5340931914        9.2183870151        1.3122996017
 O        -6.4915074141        8.0229781108        1.1547766626
 C        -7.9299379285        9.8900291651        1.3902854292
 C        -8.5233393126        9.9484604999       -0.1999059107
 O        -7.7745719980       10.3346860131       -1.0960978195
 C        -9.8055025828        9.1096699914       -0.4495345291
 C       -10.1811880231        8.7414692196       -1.9102226491
 C        -9.7093572202        7.3445962727       -2.1686503406
 O       -10.2153467778        6.5294119560       -1.4235940915
 C        -8.8314823195        6.6622254902       -3.2818143419
 C        -8.3845353020        5.3360912965       -2.6874917998
 O        -9.0861370332        4.4129444962       -3.1418501083
 C        -7.2271412772        5.1003854105       -1.5993211312
 C        -7.5539899230        5.4070836439       -0.1787659122
 C        -7.9076920815        4.1141950116        0.5703694313
 O        -8.3627239013        3.0623443350       -0.0014296937
 C        -7.6137353885        3.9557996216        2.0632013997
 C        -8.2617163355        2.5542161578        2.5407830146
 O        -7.4856760152        1.6241138814        2.6464384275
 C        -9.6992489649        2.6816372687        3.0969661620
 C        -9.8757094924        2.1923942446        4.6145913582
 C       -11.4151535871        2.4224268699        4.9939647467
 O       -11.7818887504        3.5623232862        5.2269183357
 C       -12.2922746564        1.0749756118        5.0382800713
 C       -12.4630370153        1.1091647068        3.4899263644
 O       -11.7424653564        0.3919715971        2.7226483003
 C       -13.5263430020        2.0533147749        2.8268608122
 C       -13.4604546266        2.0362521598        1.3030190182
 C       -13.6203405367        0.4529285703        0.8650305367
 O       -14.5954546674       -0.1041407261        1.3556513152
 C       -12.8131407571       -0.2889385228       -0.3266278284
 C       -11.6266673957        0.6148504896       -0.6533616156
 O       -11.7854911458        1.6577836063       -1.2410704101
 C       -10.2467303760        0.1324779677       -0.0539008399
 C        -9.6412176452       -0.8872731399       -1.0437993593
 C        -8.5155343700       -0.2049040680       -1.7803135357
 O        -7.9995242006        0.8155358297       -1.3706559737
 C        -7.9288388316       -0.7702897498       -3.0475531898
 C        -8.9012687192       -0.2796825621       -4.2122847104
 O        -9.7221711638        0.5525437137       -4.0839240006
 C        -8.6374926337       -1.0716335171       -5.4541306440
 C        -6.6565044011       -0.0667304145       -3.1511821594
 C        -7.9025042413       -2.3758525803       -3.0314953618
 C       -12.5928657220       -1.7211769439        0.3120043081
 C       -13.6714677254       -0.3070375926       -1.6331586948
 C       -11.6970155416       -0.2145097896        5.6049911145
 C       -13.7014932773        1.5226970114        5.7458654615
 C        -6.0274927055        3.9923240277        2.1784617436
 C        -8.2734334885        5.1730940974        2.8456118078
 C        -9.7555469733        6.2754646427       -4.4488056154
 C        -7.6893812928        7.8225662151       -3.6664023567
 C        -8.9666054582        9.2134911008        2.3579601734
 C        -7.5656432013       11.2407441891        2.0617339451
 H        -4.3778532930        9.1528022587        1.4097839651
 H        -5.0011307949       10.0515419242        2.6648358996
 H        -4.9918487059       10.7584636156        1.0624313903
 H       -10.5045451973        9.9290346727       -0.0857739480
 H        -9.7941882220        8.2080844750        0.1260357170
 H       -10.0247735165        9.5541954871       -2.6051388964
 H       -11.2371581093        8.6024958345       -1.8317111722
 H        -6.2940006768        5.6575543604       -1.8956344940
 H        -6.8213709428        4.1336669943       -1.7372935424
 H        -8.2677445073        6.1821882386       -0.1088060965
 H        -6.6287687336        5.8088871857        0.2685564367
 H       -10.2301171785        1.8754232262        2.4442825936
 H       -10.1102542117        3.6809391277        2.9367526680
 H        -9.3635029793        2.6694796533        5.4298805583
 H        -9.6382749946        1.0424903820        4.6778669115
 H       -13.5666941497        3.0767349965        3.3553682955
 H       -14.4999997208        1.6758223173        2.9845154933
 H       -12.4588162431        2.4032443190        1.0893134455
 H       -14.2833834515        2.5904110614        0.9094437235
 H       -10.4772608786       -0.4346011763        0.9378801962
 H        -9.6180159387        1.0071802109        0.0699534467
 H       -10.3077294686       -1.3562217037       -1.7341458755
 H        -9.3812943550       -1.6427983968       -0.3850226719
 H        -7.8231376315       -0.6448929942       -6.0151378980
 H        -9.5144081369       -1.0263004487       -6.1548747311
 H        -8.4211570494       -2.0674614116       -5.1519293171
 H        -5.9404886117       -0.3828269272       -2.4402311885
 H        -6.7031281559        0.9869055617       -2.9809112308
 H        -6.0814003348       -0.3482246805       -4.0595247500
 H        -7.6923308087       -2.6725779689       -1.9621037632
 H        -7.4236239449       -2.8607363389       -3.8083506603
 H        -8.9729690576       -2.6412396706       -3.0215014675
 H       -12.3612233129       -1.5019003155        1.3656754211
 H       -11.7547632815       -2.3186195286       -0.1500998217
 H       -13.5062480503       -2.3932112401        0.2286900093
 H       -13.3301525480       -1.1685138081       -2.2614698563
 H       -13.4076671362        0.5749197013       -2.1319767697
 H       -14.7358690842       -0.4514647681       -1.2594992143
 H       -11.2071509490       -0.0538674856        6.5404432533
 H       -10.9390989106       -0.6492184838        4.9440101805
 H       -12.4923703425       -1.0108978402        5.7737466271
 H       -13.5512891125        2.0019890351        6.7429092305
 H       -14.1447915229        0.5372084385        6.0420992372
 H       -14.2257912821        2.3340905992        5.0605399014
 H        -5.6919856732        5.0315505281        2.2763313913
 H        -5.6681186861        3.5387391468        1.2282544870
 H        -5.6940900945        3.3697033661        2.9782409494
 H        -8.5600044468        4.8238764751        3.8556716223
 H        -9.2146666769        5.2934645447        2.3621616906
 H        -7.5339338857        5.9790615001        2.8975532958
 H       -10.2607461517        7.1466189866       -4.9641113404
 H       -10.5502342105        5.6618545818       -4.0957569797
 H        -9.2187334655        5.5653549255       -5.1180386555
 H        -6.8769485487        7.3223808881       -4.2493518223
 H        -7.2709241071        8.2667519353       -2.6698420017
 H        -8.1843292539        8.6083463876       -4.1966316140
 H        -9.2319388372        8.1802957118        2.0029657211
 H        -9.9348325467        9.5387692037        2.1888466827
 H        -8.5940868156        9.2877216465        3.4160826452
 H        -6.8832936943       11.0527760652        2.8338947422
 H        -8.3423240747       11.8711991789        2.3457239375
 H        -6.8844316613       11.7264888936        1.3013643727
 Na       -9.6461597486        2.4216879116       -2.3502123051
