117

 C        -5.2396533057        9.8065911924        1.4509010922
 C        -6.5148446946        8.9994775224        1.2305372462
 O        -6.5539392379        7.8218007589        1.2629676775
 C        -7.8788702539        9.9187590736        1.2414402598
 C        -8.3126020023        9.8855246223       -0.2417808835
 O        -7.6005024546       10.2788245533       -1.0930786234
 C        -9.7979256746        9.3314782378       -0.5726098537
 C        -9.9491385983        8.8249610865       -2.1180148240
 C        -9.8027580375        7.2845801498       -2.1585652904
 O       -10.1148780327        6.5114595139       -1.2688030008
 C        -8.9972939495        6.5586803560       -3.3385248483
 C        -8.4766541516        5.3053049118       -2.6938058147
 O        -9.0420269440        4.2432417544       -3.0388816474
 C        -7.2713284679        5.1454447763       -1.7849397988
 C        -7.5998833958        5.2859330230       -0.2452778174
 C        -7.9209307930        3.9636281200        0.4983247873
 O        -8.3211402312        3.0867827205       -0.1387827600
 C        -7.6829946397        4.0738635972        2.1111749036
 C        -8.2174876250        2.7796998740        2.8924730371
 O        -7.7475075180        1.7120361848        2.8024871717
 C        -9.7000389065        2.8050215112        3.3878798822
 C        -9.7769220810        2.2076204397        4.7510911305
 C       -11.3291808007        2.3887305169        5.1258477132
 O       -11.7385880333        3.4963578253        5.1324261675
 C       -12.3229376875        1.1710418415        5.0721480877
 C       -12.5649589086        0.9829240448        3.5753673495
 O       -11.8507601654        0.2546968312        2.8902209375
 C       -13.6439009751        1.8758159186        2.9168892109
 C       -13.5056095426        2.0310004203        1.4269039853
 C       -13.8432099880        0.6380123551        0.8277083622
 O       -14.6551547054        0.0071213832        1.3862764382
 C       -12.9288732987       -0.0435205124       -0.2221949051
 C       -11.5318230478        0.6336434250       -0.5009801145
 O       -11.5543003771        1.6972984223       -1.0718025872
 C       -10.2341816377        0.0332920462       -0.0101943183
 C        -9.4763753593       -0.9994628526       -0.9223749810
 C        -8.3965254407       -0.2492623243       -1.6879301704
 O        -7.9424043696        0.8010177925       -1.2711201027
 C        -7.8951576199       -0.8906761360       -3.0632752530
 C        -8.9649704761       -0.4024317876       -4.2644467477
 O        -9.6661167622        0.6494109220       -4.2347832883
 C        -8.8525232961       -1.1364428734       -5.6386126069
 C        -6.3077405569       -0.3960494736       -3.3353073134
 C        -7.8766811813       -2.4067588026       -3.0208979808
 C       -12.6595333595       -1.4803104328        0.2741166117
 C       -13.7817156327       -0.1422299130       -1.6433180938
 C       -11.7524636605       -0.0297493577        5.5850353847
 C       -13.7212605917        1.5520857850        5.7551006068
 C        -6.1200860288        4.1385662957        2.2063505065
 C        -8.2840060915        5.2907689700        2.8629803783
 C        -9.7991271566        6.3197117405       -4.6152706440
 C        -7.7009299562        7.5258259155       -3.7839298686
 C        -8.8788440746        9.2730484947        2.1268197318
 C        -7.7046489298       11.4168650710        1.9043803018
 H        -4.4298119339        9.2514246729        1.2065862955
 H        -5.0538295003       10.1330876598        2.4755351627
 H        -5.3098524752       10.5957946522        0.7602226781
 H       -10.4989439313       10.0609008832       -0.2425007277
 H        -9.7801770009        8.3262680028        0.0180975930
 H        -9.2044884495        9.3535179620       -2.7131718202
 H       -10.9685559552        9.1598973658       -2.5402038484
 H        -6.4015432315        5.6558636913       -2.1455057078
 H        -6.9023206330        4.0655914249       -1.9518343376
 H        -8.4623201755        5.9649867312       -0.0755856329
 H        -6.7739410361        5.7725225036        0.1869029702
 H       -10.3401188924        2.2857236753        2.6032639082
 H        -9.9773086779        3.8386254122        3.5461974682
 H        -9.2362309162        2.7430001146        5.5290576851
 H        -9.4572540343        1.1381797431        4.7576327936
 H       -13.5892518505        2.8392910564        3.4189755404
 H       -14.6911085826        1.5834969028        3.0568052283
 H       -12.4501231823        2.2882312569        1.3101938877
 H       -14.1950433050        2.8434459637        1.1244627076
 H       -10.6496198772       -0.4245438584        0.9582625766
 H        -9.5412570620        0.8923237909        0.1665554471
 H       -10.0578412957       -1.3605560639       -1.7527437998
 H        -9.2870748272       -1.8996827189       -0.2412775490
 H        -8.4633481746       -0.4009711154       -6.3366485817
 H        -9.9085418920       -1.2297162391       -6.0492324684
 H        -8.2922901018       -2.0261597315       -5.6327610537
 H        -5.5005484221       -0.7463507758       -2.6834715758
 H        -6.2693993913        0.6773266136       -3.1546453780
 H        -5.9111679287       -0.6592815622       -4.3032990202
 H        -7.4117334294       -2.6430306146       -2.1529656677
 H        -7.4392463080       -2.8116763454       -3.9439467860
 H        -8.8956445553       -2.8826401701       -2.8908354307
 H       -12.6465653907       -1.4906424021        1.3161118632
 H       -11.7287178594       -1.8443306199       -0.1121840059
 H       -13.4743735796       -2.2172233078       -0.0849942625
 H       -13.7127026069       -1.0450435869       -2.2162605215
 H       -13.4221668303        0.7504667730       -2.2277330008
 H       -14.7448983439       -0.0428495897       -1.1450680134
 H       -11.3969078851        0.1384707599        6.5488412690
 H       -10.7895232770       -0.2734275573        4.9407096849
 H       -12.3425435412       -0.8914610507        5.5548152638
 H       -13.5366602927        2.1453358835        6.7104052369
 H       -14.0568933087        0.5718139298        6.1779618869
 H       -14.3311546994        2.1387350411        5.0774634146
 H        -5.7818676416        5.1481089350        2.1915119575
 H        -5.6592500691        3.4606551649        1.4295727748
 H        -5.9031488792        3.6215066484        3.1710281764
 H        -8.5127189931        5.0204816647        3.8045819465
 H        -9.2121890299        5.3015752255        2.3550496513
 H        -7.6528362840        6.1204904166        2.8469132015
 H        -9.9931140357        7.2302939106       -5.1800834637
 H       -10.7905297916        5.8388575210       -4.3859960065
 H        -9.3396570707        5.5311175061       -5.1618781388
 H        -7.2398514746        6.9106969762       -4.5480557839
 H        -7.0787473255        7.7511432549       -2.9866630311
 H        -8.0678527499        8.4598390134       -4.2780284775
 H        -9.1274500059        8.4320289884        1.5907199823
 H        -9.8752741379        9.6129263255        2.0142906172
 H        -8.5413640319        9.0672239631        3.1180394763
 H        -7.4337451091       11.3123500522        2.9949336802
 H        -8.5430516271       12.0820664753        1.6962665671
 H        -6.8464959375       11.8443422267        1.3501005615
 Na       -9.5788431377        2.4564910153       -2.3168164070
