117

 C        -5.2078758572        9.6499675493        0.8906003447
 C        -6.5505144369        8.9629452659        1.2673524721
 O        -6.6168865546        7.8063308834        1.5124267272
 C        -7.9093956656        9.9334762035        1.0708453640
 C        -8.1495442197        9.8164963634       -0.5098425724
 O        -7.1480736188        9.9074010726       -1.1611787434
 C        -9.5600872492        9.7316191480       -1.2659027863
 C        -9.3956402141        9.0143770062       -2.6579467716
 C        -9.5375773446        7.4757861009       -2.4162136964
 O       -10.0713895101        7.0429078871       -1.4211802365
 C        -8.8875112006        6.5460583837       -3.3981878185
 C        -8.5997997544        5.0664509695       -2.8571655836
 O        -9.2555653976        4.0566757643       -3.2569487651
 C        -7.3818224123        4.7405078606       -1.8526380733
 C        -7.6994562419        5.1681043324       -0.4011988248
 C        -8.0426356514        4.0543513465        0.5876381518
 O        -8.6655298470        3.0902913361        0.1122509772
 C        -7.6233415647        4.2893266996        2.0823098280
 C        -8.3598042331        3.0800980399        3.0009296503
 O        -7.7830171708        2.0469829976        3.0038191825
 C        -9.6374610875        3.4009623396        3.6650626714
 C        -9.9699846082        2.3311120626        4.7923692574
 C       -11.4485562626        2.4785718571        5.3214070091
 O       -11.9900465515        3.5120461904        5.4920814931
 C       -12.4400975149        1.1556213094        5.3626952892
 C       -12.8728007204        1.0220851098        3.8961863477
 O       -12.4059745277        0.0769384715        3.2119329717
 C       -13.6846317918        2.1571950559        3.2068736618
 C       -13.4950583208        2.1353483415        1.6551464026
 C       -13.8495545401        0.7240130470        0.9430011766
 O       -14.9659272476        0.3368654661        0.9178578635
 C       -12.8549029620       -0.0190593257       -0.1402004137
 C       -11.4124727220        0.5105184929       -0.3080587532
 O       -11.3500712677        1.5826375699       -0.8587105726
 C       -10.0770668658       -0.1630144233        0.0573577731
 C        -9.3380740343       -1.1176110256       -0.9418388816
 C        -8.1322915249       -0.5251926319       -1.6819189712
 O        -7.4450860341        0.4965215670       -1.6323342996
 C        -7.9598552921       -1.2676668573       -3.0742017344
 C        -8.7956054030       -0.3709926120       -4.1412549161
 O        -9.0634395889        0.7873737756       -3.9156680232
 C        -9.1744663426       -1.1049181463       -5.4153250362
 C        -6.5981123513       -0.8616173591       -3.6331493384
 C        -8.2383592891       -2.8119936528       -3.1401269108
 C       -12.9970990060       -1.5345828420       -0.0731010094
 C       -13.5395285571        0.5482954292       -1.5350434269
 C       -11.6901172398       -0.0529701066        5.8865390240
 C       -13.5827476674        1.4822298813        6.3214941851
 C        -6.1036496303        4.1760893263        2.3118710495
 C        -8.3672225518        5.6282440853        2.4816708208
 C       -10.2011611153        6.3874001645       -4.2142273902
 C        -7.5920178364        7.0937874096       -4.1090230404
 C        -9.0398737159        9.2966629055        1.8645390525
 C        -7.7849089041       11.4146096862        1.3469131882
 H        -4.3032307796        9.1039278939        1.1004161820
 H        -5.1635168611       10.6796049110        1.4535715698
 H        -5.1704770531        9.8329761059       -0.1993925459
 H        -9.9281988526       10.7617543978       -1.3909610178
 H       -10.2277104166        9.1601845410       -0.6005408930
 H        -8.4185198435        9.2572953033       -3.0033591507
 H       -10.0047122340        9.5224569588       -3.3660753768
 H        -6.4857444768        5.1512243328       -2.3181538685
 H        -7.2091196850        3.6788263950       -1.8088369482
 H        -8.5508212229        5.8414239866       -0.4623619692
 H        -6.8524045884        5.7711074333       -0.0005037488
 H       -10.3397577886        3.3905347154        2.7717094385
 H        -9.6160566453        4.4033282907        4.0080155501
 H        -9.2671391298        2.5009925650        5.5964419013
 H        -9.7454623013        1.2724668795        4.3626911715
 H       -13.3480948879        3.1831966844        3.5935542696
 H       -14.6927855938        2.1719328043        3.5339012673
 H       -12.4679148675        2.4969859958        1.5484683247
 H       -14.1584530250        2.8619966207        1.2059557873
 H       -10.4405703819       -0.7020570875        0.9944862793
 H        -9.4975009198        0.6879703498        0.2077206768
 H       -10.0201355452       -1.1899816462       -1.7696316895
 H        -9.1622893514       -2.1440089726       -0.7190880509
 H        -9.8303851486       -0.5397042732       -6.0614941520
 H        -9.7827348087       -2.0369221612       -5.1081819337
 H        -8.2999312263       -1.3807100137       -5.9150255828
 H        -5.7507259382       -1.0313540488       -2.9850320971
 H        -6.4773013273        0.1989059323       -3.8534576558
 H        -6.4203961728       -1.3773336956       -4.6080864965
 H        -7.5692934835       -3.3414869089       -2.4796103077
 H        -8.0083114676       -3.0728451293       -4.1502258435
 H        -9.3345625744       -3.1174866090       -3.0095114785
 H       -12.2080267153       -2.0994528935        0.3865734558
 H       -13.0146677757       -1.9014407885       -1.1171364849
 H       -13.9425778238       -1.7573475302        0.5960511979
 H       -12.7276054377        0.3509653413       -2.2006207910
 H       -13.7243541887        1.6046265111       -1.4857848283
 H       -14.4106023963       -0.0904860696       -1.7769986830
 H       -11.2808038029        0.1223418879        6.8246154190
 H       -10.8418694376       -0.5004550189        5.1928485120
 H       -12.3091664017       -0.9521821759        5.8917327577
 H       -13.2777155753        1.1453153449        7.3428074463
 H       -14.5845085799        1.0983661219        5.9648461805
 H       -13.7193813699        2.5607835005        6.1442923268
 H        -5.6092714286        4.6031242027        1.4758406449
 H        -5.8961843999        3.1093762582        2.5001749675
 H        -5.8318197002        4.6577811046        3.2177435799
 H        -8.2112435058        5.6715920591        3.5841045136
 H        -9.4577235488        5.4509271021        2.1254405296
 H        -7.8806290371        6.5084422349        1.9544965407
 H       -10.5004465973        7.4195533098       -4.5016128133
 H       -10.9899489211        5.8507003249       -3.7066223781
 H       -10.0517787207        5.8519884268       -5.1419244779
 H        -7.1200160010        6.2348263888       -4.6202125180
 H        -7.0574299126        7.6829276760       -3.3697987308
 H        -7.9168675031        7.6699213737       -4.9959547525
 H        -9.3242020317        8.2296948383        1.7307465048
 H        -9.9896013176        9.7567191689        1.5877787540
 H        -8.8459084083        9.4497769284        2.9913641011
 H        -7.5966290265       11.6005271894        2.3752866619
 H        -8.6813319671       11.9344926793        1.1554362532
 H        -7.0926290237       11.8114726485        0.5664451317
 Na       -9.1476737471        2.0472607116       -1.8513563777
