117

 C        -5.1592408990        9.9023912532        0.7916521241
 C        -6.5208498332        9.1756032550        1.0677277309
 O        -6.6279275774        8.1069285333        1.7057893890
 C        -7.7737941227       10.0460933468        0.7126945020
 C        -7.8857103434        9.9487211962       -0.8715439065
 O        -6.9180083463        9.4901251660       -1.4861474352
 C        -9.2609317693        9.9579349478       -1.5905681116
 C        -9.3363347834        9.0668543867       -2.7925273271
 C        -9.4094367743        7.5805579950       -2.3942748084
 O        -9.8055929751        7.2285851666       -1.2859979749
 C        -8.9370161416        6.3809280797       -3.4174646483
 C        -8.7674060634        4.8738851226       -2.7477955461
 O        -9.5264793840        4.0026999032       -3.0009711649
 C        -7.4950423564        4.7080321648       -1.9526960366
 C        -7.7651852132        5.0315817233       -0.3924420739
 C        -8.1790222385        4.0741193894        0.6435416592
 O        -8.7214753699        2.9596538582        0.4195670640
 C        -7.7976963654        4.4756491708        2.1555560598
 C        -8.4007890206        3.2869623269        3.0643417091
 O        -7.9510099711        2.1030542433        3.1284716156
 C        -9.7821304818        3.5010445837        3.8541152618
 C       -10.2461911999        2.2375758187        4.5393282882
 C       -11.5031633307        2.5339662979        5.4709219411
 O       -11.8702861807        3.6798190678        5.8153929162
 C       -12.5198319291        1.2497201627        5.4288662350
 C       -12.9891856142        0.8985122629        3.9214510220
 O       -12.7026232554       -0.1552001691        3.4222926937
 C       -13.7182443784        1.9941023450        3.1779726321
 C       -13.1218654366        1.9824729082        1.6842970884
 C       -13.6507923101        0.8310426439        0.9170359011
 O       -14.8295106692        0.4676329781        1.0537572778
 C       -12.8040994062        0.2172068877       -0.2728774094
 C       -11.2346919507        0.6066314620       -0.2927884297
 O       -10.9050378769        1.6592925416       -0.8928798448
 C       -10.1012430583       -0.3852635645        0.2219622615
 C        -9.6800270294       -1.2931553131       -0.8931225613
 C        -8.2674414120       -0.7727745541       -1.5869849989
 O        -7.5301316113        0.0294548875       -1.0809174797
 C        -7.9372917647       -1.3129465196       -3.1642848101
 C        -8.8198823157       -0.4208489768       -4.1903593043
 O        -9.1496447221        0.6917329639       -3.8450418767
 C        -9.6140877228       -0.9840021512       -5.4936095328
 C        -6.3863472889       -1.3713845343       -3.5560197481
 C        -8.4443879080       -2.8384970542       -3.2377695510
 C       -12.9236961648       -1.3309003614       -0.1535930454
 C       -13.5136501574        0.6965447073       -1.5678539830
 C       -11.6453202981        0.0360538349        5.8640953133
 C       -13.6459029116        1.4132243647        6.4109113061
 C        -6.2833407943        4.5086010462        2.1940032127
 C        -8.3776750818        5.8695414927        2.5535780733
 C       -10.0697807899        6.0991934752       -4.4419046534
 C        -7.7743595125        6.6481469056       -4.4704693472
 C        -9.1056549487        9.4316963430        1.3264445797
 C        -7.5341102916       11.3900622429        1.3829618311
 H        -4.3340238204        9.3218086310        1.2323550325
 H        -5.2885344500       10.9216088346        0.9111150543
 H        -4.9092982006        9.7151642302       -0.2180864457
 H        -9.3001459453       11.0410523007       -1.8938175377
 H       -10.1256680565        9.7889482239       -0.9851275230
 H        -8.4483957713        9.2422850927       -3.4952254089
 H       -10.1798449797        9.4029622674       -3.4578757059
 H        -6.8535014215        5.5509703768       -2.3240558122
 H        -7.0945347355        3.7083522892       -2.1841215278
 H        -8.5989409308        5.7501476194       -0.4586325946
 H        -6.8923317048        5.6045486965       -0.1169490883
 H       -10.5326596107        4.0125800870        3.2261205997
 H        -9.4303487395        4.2741315739        4.6305670676
 H        -9.2636292474        1.9519171595        4.9988557438
 H       -10.5070334545        1.4918256361        3.8572019469
 H       -13.8045011254        2.9090104305        3.6764947461
 H       -14.8181126362        1.7366549448        3.0873674634
 H       -12.0239329493        1.9649816097        1.7116873710
 H       -13.3313119684        2.9614333379        1.1892203774
 H       -10.4358645663       -1.0395043735        1.0023323202
 H        -9.3024374350        0.4074520657        0.4675667877
 H       -10.5337552735       -1.5616302097       -1.5742013432
 H        -9.4754464505       -2.3225600821       -0.5492720125
 H       -10.5255083322       -0.3832066655       -5.5342908847
 H        -9.9910012544       -1.9195339134       -5.2761319542
 H        -9.1023078201       -0.9964070465       -6.5193283915
 H        -5.9162894877       -2.1070630183       -2.8879171725
 H        -5.7208562089       -0.5030142214       -3.5071676242
 H        -6.3009020765       -1.6617574747       -4.5786735657
 H        -7.8578614822       -3.3513031591       -2.4014890908
 H        -8.1522805497       -3.3978065547       -4.1525670041
 H        -9.4624255175       -2.8843453833       -3.1493417825
 H       -12.2550085145       -1.7853103648        0.6250717553
 H       -12.4024740413       -1.6652411574       -1.0412278964
 H       -13.8621327875       -1.7057336372        0.0143137529
 H       -13.0455124969        0.1108682993       -2.4091372843
 H       -13.4823226011        1.7967325162       -1.5942642346
 H       -14.5425964448        0.3318252487       -1.3976459303
 H       -10.9962384661        0.4073496350        6.7076869072
 H       -10.9912899824       -0.2868518786        5.1784410778
 H       -12.1326117593       -0.8932217579        6.1629786001
 H       -13.3370621762        0.8648122911        7.2585400696
 H       -14.6090676418        1.1843019114        5.9582865923
 H       -13.8303191887        2.5132397365        6.5551743460
 H        -5.9259331273        5.1642386510        1.3539851134
 H        -5.9339038650        3.5075618466        2.2085321415
 H        -5.9602203962        4.9139430270        3.1667595293
 H        -8.1925837037        5.9576203373        3.5960240872
 H        -9.3228949390        6.0356691215        2.2281775578
 H        -7.7096237246        6.4710919694        2.0156452868
 H       -10.2665179243        7.0145411564       -5.0228849548
 H       -10.9612691591        5.7090187272       -3.9280413764
 H        -9.8477920937        5.3622870543       -5.2767145718
 H        -7.7243226207        5.9013387437       -5.2238144457
 H        -6.8890554027        6.8642326005       -3.8471074660
 H        -8.0801795934        7.5221876900       -4.9752194765
 H        -9.4036641752        8.4028656614        1.0468985968
 H        -9.9934207890       10.0815706168        1.2301446186
 H        -8.9395504548        9.2826583204        2.3651907308
 H        -7.2473009334       11.1304263139        2.3667351125
 H        -8.4708953432       11.8263353061        1.7778113012
 H        -6.9260412741       12.0486647683        0.7473766852
 Na       -8.9389372542        2.2832301377       -1.7788148812
