117

 C        -4.6736032818       10.3510612444        0.2192063484
 C        -6.1359792126       10.0142403607        0.4935178694
 O        -6.4224278161        9.2247130262        1.3903321253
 C        -7.2984771419       10.5114378855       -0.3919967320
 C        -7.0149638859        9.5940888243       -1.8403947228
 O        -6.3369045804        8.5695197728       -1.9165529919
 C        -7.9722954509        9.8206120845       -3.0390675109
 C        -8.2983074880        8.5264872737       -3.8193077341
 C        -9.0663749541        7.4879340500       -2.9954560639
 O        -9.7642474191        7.8608771227       -2.0758689310
 C        -9.0923139995        5.9484092238       -3.4530985422
 C        -8.5998188340        5.0168527351       -2.3226542305
 O        -9.1679274061        3.9639805682       -2.1901295487
 C        -7.4942149729        5.5487086913       -1.4671333233
 C        -7.8708517621        5.8134044923       -0.0146373641
 C        -7.8287818225        4.4569457874        0.9663180241
 O        -7.6869082577        3.3104564033        0.4723633077
 C        -7.9213670256        4.8375306837        2.5121546900
 C        -8.5174573403        3.4282523500        3.4340307562
 O        -7.9547772402        2.2943216739        3.1624776398
 C        -9.8436157546        3.4079534777        4.1176065085
 C        -9.9860093319        2.1056314468        5.1228180512
 C       -11.4860846597        2.3129428442        5.8648902105
 O       -11.7129823250        3.3428624615        6.5355281631
 C       -12.6328883900        1.3603378970        5.5217759967
 C       -12.9601396191        0.9098679871        4.0634046777
 O       -12.8312081941       -0.2319647360        3.7691070596
 C       -13.4208478052        1.9141801130        3.0051674448
 C       -12.8294390221        1.5982913059        1.6696947425
 C       -13.7097728745        0.6297187476        0.9040852706
 O       -14.8693122704        0.5433331450        1.1536002201
 C       -13.1430453168        0.1735633845       -0.5214728301
 C       -11.5660335773       -0.0230930534       -0.4140606457
 O       -10.9342342042        0.9463030234       -0.8120046203
 C       -10.7811177335       -1.0748824461        0.4102156497
 C        -9.6360697618       -1.8771101305       -0.2783121301
 C        -8.7293804790       -1.1048736763       -1.2820817145
 O        -8.1774913284       -0.1077308653       -1.0258226237
 C        -8.6229898657       -1.6534531497       -2.7958950445
 C        -8.9691528012       -0.4525029857       -3.7321327299
 O        -9.0129965840        0.6759195327       -3.2900975091
 C        -9.5998706897       -0.8077466481       -5.1772204669
 C        -7.2026428863       -1.9918564677       -3.0586286873
 C        -9.6224495176       -2.7949341172       -3.1320789698
 C       -13.8798717554       -1.1508306673       -0.9701228997
 C       -13.5052396678        1.3508426878       -1.4432467729
 C       -12.0606568120       -0.0177323888        6.2344799149
 C       -13.9194542169        1.7966363300        6.2576004502
 C        -6.5669761809        5.1500266684        3.1977455397
 C        -8.8221314289        6.0740310096        2.7217381198
 C       -10.5107423013        5.4313314707       -3.7631696948
 C        -8.3020738004        5.6512626426       -4.7907693939
 C        -8.6582735082        9.8606235649       -0.0305470764
 C        -7.3641346056       12.0744029421       -0.4270862467
 H        -4.0456463312        9.4972218558        0.6613309456
 H        -4.4143567387       11.4211690403        0.4642851663
 H        -4.4259829480       10.0708664478       -0.8648685266
 H        -7.5570334418       10.3981922915       -3.8768746886
 H        -8.8831086877       10.3793015785       -2.8654779503
 H        -7.3994645852        8.1171543538       -4.2948566889
 H        -8.8900573467        8.7541878679       -4.6699114795
 H        -7.1672156998        6.4062503324       -1.9846771641
 H        -6.6824527961        4.7986853267       -1.3491853839
 H        -8.8635291116        6.3826324333       -0.0561351707
 H        -7.1520922075        6.5371872577        0.2587037013
 H       -10.6737516571        3.5418850925        3.4886420468
 H        -9.9478730951        4.1899214432        4.8564696571
 H        -9.1930704822        2.3134309260        5.9674030519
 H        -9.7138017754        1.1920064262        4.6527496129
 H       -13.2560404319        2.8937746618        3.3733796018
 H       -14.5460740991        1.7218043191        2.8506445320
 H       -11.8970563877        1.1099246910        1.9309082751
 H       -12.4414150481        2.4884211633        1.1412167070
 H       -11.4099855723       -1.7666756897        0.8999068044
 H       -10.3165367676       -0.4980179589        1.2902084087
 H       -10.0234225255       -2.7363935644       -0.7480167410
 H        -8.8357181209       -2.3790605917        0.3317457889
 H        -9.2852720060        0.0181189048       -5.7817102474
 H       -10.6193882660       -0.7892551662       -5.0635932534
 H        -9.4245661368       -1.7661641400       -5.7217868893
 H        -6.8626743037       -2.9632090570       -2.6424289652
 H        -6.5295643285       -1.1472789526       -2.7954906974
 H        -6.9762756787       -2.1365086032       -4.1004228477
 H        -9.6958529415       -3.4961262226       -2.2390038239
 H        -9.3519524910       -3.3040010107       -4.0875886500
 H       -10.5810342093       -2.3958017023       -3.1606980297
 H       -13.2367463293       -1.5283054682       -1.8147751448
 H       -14.9503653024       -1.1503584805       -1.0503623420
 H       -13.7224372762       -1.8886513136       -0.2311988322
 H       -12.7146929012        1.3749602751       -2.2059536689
 H       -13.5420164455        2.3134422050       -0.9060966956
 H       -14.4442425556        1.1199675474       -1.9085226596
 H       -12.0347195659       -0.0019944766        7.3171661660
 H       -11.0656121757       -0.1647671512        5.9006121459
 H       -12.7913057664       -0.8630410804        6.1053765834
 H       -13.7591847507        2.6330500485        6.8867887667
 H       -14.2596711559        0.9309186723        6.8586892371
 H       -14.6663617231        2.2239428312        5.5198329724
 H        -5.8180395004        5.5815838380        2.4899648516
 H        -6.1215385491        4.2537940431        3.5720590733
 H        -6.7697236928        5.9079146899        3.9873292221
 H        -8.7685026245        6.4700961503        3.8020116565
 H        -9.8756429262        5.8106630866        2.6152182288
 H        -8.5214077174        7.0004437184        2.0703100698
 H       -10.9244504545        6.2144253749       -4.3403799356
 H       -11.1739219927        5.4071279779       -2.9273330661
 H       -10.4875071904        4.4982393129       -4.3509028410
 H        -8.7599023516        4.8982212399       -5.3785305379
 H        -7.2637716566        5.2222131436       -4.5815066228
 H        -8.2580734164        6.5962640582       -5.2155520891
 H        -8.3243331227        9.2297404500        0.8412982376
 H        -9.2805300862        9.3028478230       -0.7252973295
 H        -9.4127799617       10.5571525712        0.3171239528
 H        -6.8649157537       12.4223883093        0.3843732577
 H        -8.4367770932       12.2657340208       -0.5387295818
 H        -6.9007522018       12.4637673488       -1.3653769025
 Na       -8.8249547315        1.9568173737       -1.1575257167
