117

 C        -4.3590696309       11.0641340768       -0.0379101268
 C        -5.8283713249       10.7263231038       -0.1632477193
 O        -6.3201084088        9.9910770821        0.7155854468
 C        -6.7600189401       10.8673782050       -1.4486668224
 C        -6.5771728570        9.3583618415       -2.3346478492
 O        -6.2797253091        8.3724167856       -1.6994397418
 C        -7.2107020514        9.1719308463       -3.6766328099
 C        -7.6838545099        7.7268836934       -4.1364032006
 C        -8.9367281346        7.1158207793       -3.4079754782
 O        -9.8691164812        7.8311912353       -3.0483299587
 C        -9.0075151783        5.5237668328       -3.4029519747
 C        -8.3855452683        4.8258483456       -2.0492055662
 O        -8.6216762431        3.6510873982       -2.0115991130
 C        -7.3565339455        5.5944405881       -1.1078857204
 C        -8.1428475739        5.9328549198        0.2799758589
 C        -8.1805226463        4.6619070964        1.2971300457
 O        -8.3241717695        3.5381449394        0.8011544390
 C        -8.0660441742        4.8504833373        2.7617092582
 C        -8.5173556734        3.4628665346        3.3106726684
 O        -7.6566143498        2.5866512105        3.3891420386
 C        -9.9520932514        3.3775544512        3.8212589473
 C       -10.1741794028        2.3093155834        4.8556469033
 C       -11.3923287653        2.3937895451        5.6358576020
 O       -11.6588094302        3.4303939618        6.2947233081
 C       -12.5125371921        1.2556908757        5.4683200036
 C       -12.5453407961        1.1058201810        3.9609592573
 O       -11.7834793860        0.3171276697        3.3575178924
 C       -13.6594752297        1.7457008492        3.2075831973
 C       -13.2062013888        1.6425606583        1.7658792230
 C       -13.9774885426        0.5028206105        1.0772229481
 O       -14.7110763373       -0.2433270375        1.6677422514
 C       -13.5259983447        0.2527626480       -0.3927597930
 C       -11.8505908325        0.0653574549       -0.2539388295
 O       -11.0896211664        0.6944638154       -0.9160968795
 C       -11.3257650047       -0.9994264988        0.7366410922
 C       -10.4817404057       -2.0474964988        0.0808151496
 C        -9.3635086852       -1.3451073313       -0.8224978986
 O        -8.6034714834       -0.6535045541       -0.1265876641
 C        -9.1813650989       -1.5722890186       -2.3906151525
 C        -9.0738139336       -0.0648693568       -3.1680761847
 O        -8.8092595655        1.0155886181       -2.6876820038
 C        -9.1735576266       -0.1804722935       -4.6754532798
 C        -7.9510672184       -2.5389410622       -2.6478238144
 C       -10.4344441283       -2.2541304246       -2.9042618262
 C       -14.1633489633       -1.0256720397       -0.8863755158
 C       -13.7743451856        1.4775884058       -1.3016192606
 C       -12.3398394371       -0.0927903199        6.1455700125
 C       -13.7890143175        1.8928184845        5.9153924638
 C        -6.6377492812        5.2067174367        3.0949926740
 C        -9.0705958190        6.0227180996        3.1833192105
 C       -10.5569422238        5.2513141354       -3.4466597474
 C        -8.4975661589        4.7646398622       -4.6261455773
 C        -8.2461896780       10.6745567658       -1.0363812514
 C        -6.2336004317       12.0261198951       -2.3149472770
 H        -4.1639221117       11.5072842858        0.9717486113
 H        -4.0127431959       11.8273198932       -0.6441326448
 H        -3.8700991689       10.1160553507       -0.3654180283
 H        -6.5255852677        9.2446135371       -4.4672050379
 H        -8.0121235922       10.0206168782       -3.7841252277
 H        -6.7987577965        7.1773884715       -3.9540816248
 H        -8.1515666553        7.6634822385       -5.1626349575
 H        -7.1224142033        6.4937408208       -1.6314656924
 H        -6.3735809678        5.1835124825       -0.9004840460
 H        -9.1254437627        6.1788042995        0.0644272795
 H        -7.8336058984        6.9221444304        0.6582068384
 H       -10.6058121335        3.0312753260        2.8917043594
 H       -10.3475110981        4.2974348569        4.2582865123
 H        -9.3221799458        2.4221360517        5.4910084613
 H       -10.1075316346        1.4480315691        4.2342744521
 H       -13.7419991344        2.8021941444        3.6114211228
 H       -14.4815545767        1.1047637700        3.3170335511
 H       -12.1132200228        1.4978378376        1.7779483850
 H       -13.4113862921        2.5831317965        1.3050928060
 H       -11.9326448492       -1.4442705921        1.5742049457
 H       -10.6199093364       -0.5686746149        1.4543923625
 H       -11.0189209271       -2.8035276382       -0.3924316464
 H        -9.9445531053       -2.3392481234        1.0447115494
 H        -8.9419577091        0.8273823230       -5.0860357285
 H       -10.0518742070       -0.5573518578       -5.0830712462
 H        -8.3209742913       -0.7068387405       -5.0999547488
 H        -8.0577303526       -3.4906976788       -2.0734920189
 H        -7.0361897024       -2.1597643397       -2.1629166299
 H        -7.8254735214       -2.8532357882       -3.7038584837
 H       -10.5472243551       -3.0814758473       -2.2574576955
 H       -10.2872772823       -2.7510788989       -3.8939432457
 H       -11.3519118446       -1.6325232093       -2.8587261738
 H       -13.9598243525       -1.9871287002       -0.2190350672
 H       -13.8731504255       -1.4529363617       -1.8572097478
 H       -15.2145907030       -0.8138160098       -0.7313596958
 H       -13.2596908147        1.3090813969       -2.2107739650
 H       -13.2728332918        2.4350904660       -0.8953803788
 H       -14.8062634011        1.6894533684       -1.5364190311
 H       -12.4340284710        0.0384825864        7.3052462164
 H       -11.5200314785       -0.7014752235        5.8992893896
 H       -13.1333049522       -0.6765140812        5.7111245869
 H       -13.9105191236        1.8549338826        7.0440189251
 H       -14.6932118805        1.2562433647        5.7799715266
 H       -13.8904446574        2.9313605713        5.5501816493
 H        -6.2108682084        5.8606528635        2.3669220444
 H        -5.9939153796        4.2832047290        3.1253792232
 H        -6.5536173185        5.7506212837        4.0622883927
 H        -9.4306669564        6.0676458208        4.2957731032
 H        -9.9679580410        6.2010080515        2.5755893472
 H        -8.5256059677        7.0099482364        2.9349249522
 H       -10.9136182826        6.0243510637       -4.1110756825
 H       -11.0324687717        5.3459335770       -2.4473368266
 H       -10.8110137166        4.2798857598       -3.6692675892
 H        -8.7731159203        3.7026026654       -4.5554802201
 H        -7.4932527915        4.9607237891       -4.8891323531
 H        -9.1140721339        5.0472823224       -5.5444078176
 H        -8.7158714864        9.7377185187       -0.9926959510
 H        -8.8203381649       11.1308281043       -1.9392248745
 H        -8.5071021985       11.2265323915       -0.1052351483
 H        -5.4875328163       12.6129500317       -1.7371803941
 H        -6.9460286696       12.7083103163       -2.7472798102
 H        -5.6783470388       11.5836182435       -3.0948664119
 Na       -8.3738194004        1.5256819156       -0.5221473391
