117

 C        -4.3362948374       11.1332889544       -0.1126405229
 C        -5.7438276181       10.5968582554       -0.2650188735
 O        -6.3556904488       10.2002561761        0.6950333649
 C        -6.5426939880       10.7193296694       -1.7738730964
 C        -6.5735455943        9.3533502193       -2.3445419949
 O        -6.1752906928        8.4087635889       -1.6816095873
 C        -7.1236905831        9.2220572776       -3.7669270935
 C        -7.4675846571        7.6940077069       -4.0269850047
 C        -8.8260884223        7.0885337430       -3.4016342350
 O        -9.7915803994        7.7404292177       -3.0988650829
 C        -9.0319144939        5.4797940641       -3.3990403206
 C        -8.3801003651        4.7183630946       -2.1432570052
 O        -8.6700127163        3.5957140520       -1.8777104503
 C        -7.4664522930        5.4393372267       -1.0938474008
 C        -8.2547308873        5.9042038959        0.2055083615
 C        -8.2533496418        4.6733351362        1.2465553237
 O        -8.5092217230        3.5766087097        0.7627735492
 C        -8.0727750092        4.9536653729        2.7274268664
 C        -8.4777002461        3.5376660314        3.4070307653
 O        -7.5742185427        2.6449328560        3.4760795789
 C        -9.8587033381        3.2717308148        3.8833843678
 C       -10.0255562586        2.1934014055        5.0225236209
 C       -11.4213420298        2.4326460124        5.7086071685
 O       -11.7567342518        3.4318908540        6.3107503844
 C       -12.5794629215        1.3185153731        5.4949930396
 C       -12.5769607899        1.0742271681        3.8946673050
 O       -11.7330112767        0.4269560035        3.3843890819
 C       -13.7160467113        1.8319122286        3.1954948190
 C       -13.5331252137        1.7267657615        1.6373958051
 C       -14.0463911322        0.4443773699        1.1556577156
 O       -14.7269002267       -0.3751999802        1.6970633748
 C       -13.5153707272        0.2333670141       -0.3729838555
 C       -11.9226426147        0.0395936802       -0.2029321035
 O       -11.1716010864        0.7111188854       -0.8698236683
 C       -11.3285306536       -0.9299565150        0.7787507355
 C       -10.5623589250       -2.0400549596       -0.0768620976
 C        -9.3721181027       -1.3274829132       -0.7169497609
 O        -8.4952860906       -0.7220063306       -0.1866528757
 C        -9.3158553480       -1.5964884090       -2.2712227228
 C        -8.9704474268       -0.1917165879       -3.0203235561
 O        -8.7405292440        0.8444643007       -2.4391572266
 C        -9.1334331793       -0.1926583180       -4.5833164291
 C        -8.1108916119       -2.4457545637       -2.4811790148
 C       -10.6359216737       -2.1583138740       -2.8999930799
 C       -14.1837708274       -0.9971510138       -0.9574529498
 C       -13.8122198440        1.4287231044       -1.2514138451
 C       -12.1951076151       -0.1158067469        5.9815565712
 C       -13.8455448569        1.8973159414        6.0574719053
 C        -6.6040678178        5.2105780210        3.1103393530
 C        -8.9898386379        6.0912847487        3.2556064642
 C       -10.5706848278        5.1660198613       -3.3922926368
 C        -8.5083927048        4.8101703369       -4.7234095963
 C        -8.1052402358       10.8637462035       -1.4843677682
 C        -6.1401367195       11.9536643640       -2.6027559372
 H        -4.4047297607       11.8835940314        0.6213834505
 H        -4.0775524052       11.7885461531       -0.9037076188
 H        -3.5926316597       10.3910607403       -0.0742401783
 H        -6.4389367308        9.3292167344       -4.5897089768
 H        -8.0222107122        9.8651285919       -3.9529303293
 H        -6.5110473271        7.0951302548       -3.8396654994
 H        -7.9792945124        7.6234612356       -5.0450522715
 H        -6.8620405888        6.2092461124       -1.4970228624
 H        -6.6444384758        4.7879571741       -0.6391129762
 H        -9.2369866551        6.4494425907        0.1501750032
 H        -7.6882196043        6.7236736035        0.5209869765
 H       -10.5988223395        2.9343932316        3.0919948233
 H       -10.2462887667        4.1958060333        4.3671036383
 H        -9.2421316992        2.4604423532        5.7659341899
 H        -9.8900625838        1.3381567423        4.4737831458
 H       -13.6493967722        2.8030324261        3.6789939303
 H       -14.6024206452        1.2721140423        3.4104255972
 H       -12.4365320630        1.6376053770        1.5066096997
 H       -13.9277679461        2.5934866285        1.0901259664
 H       -12.0698192873       -1.3705671030        1.3410898021
 H       -10.7667096726       -0.5192730691        1.6546083642
 H       -11.2998945239       -2.2994106920       -0.8671847901
 H       -10.1679193907       -2.9477052361        0.5290232362
 H        -8.6327256229        0.7143241269       -4.9200173999
 H       -10.1004505700       -0.2240981087       -5.0224444284
 H        -8.4414169583       -0.9209273294       -5.1321133981
 H        -8.3838667332       -3.5221780963       -2.2786877052
 H        -7.3818500154       -2.3235480533       -1.6480040494
 H        -7.6500953001       -2.4560160756       -3.4547927906
 H       -10.8352152804       -3.2283081623       -2.6092296399
 H       -10.5641689101       -2.2033958702       -4.0115001229
 H       -11.3884404074       -1.5290142912       -2.6603343798
 H       -13.5015804827       -1.9152387926       -1.0337409131
 H       -14.5549662023       -0.9952855839       -2.0107200434
 H       -15.0187855284       -1.2220210857       -0.2361254661
 H       -13.2283038250        1.4633260173       -2.2049483645
 H       -13.6116834143        2.3945654640       -0.7524031713
 H       -14.8939457680        1.4448375500       -1.5340326009
 H       -12.1002926515       -0.1768942586        6.9724765014
 H       -11.3009671601       -0.4733130547        5.4860778839
 H       -12.8932973089       -0.8595844471        5.4786119893
 H       -13.7585798423        2.1717704549        7.0498298196
 H       -14.7124978887        1.1914747784        6.1860271843
 H       -14.1513035010        2.8494661919        5.4876579254
 H        -6.0382570062        5.5104071281        2.2227051623
 H        -6.1507714641        4.3171225932        3.4612640595
 H        -6.4035213518        6.0340101600        3.8197784236
 H        -8.9705478077        6.0898990766        4.3264841653
 H       -10.0115956933        5.9799377908        3.0068153222
 H        -8.7865800954        7.0937351001        2.8342880908
 H       -11.0437730599        5.8366775631       -4.1094840386
 H       -10.9797081832        5.1728497682       -2.3707075636
 H       -10.7572626770        4.0682236575       -3.5681888274
 H        -8.0445695858        3.8332763345       -4.5916186981
 H        -7.8826890429        5.5381258583       -5.3649198051
 H        -9.3057339713        4.5202507798       -5.3602376912
 H        -8.7174714464        9.9634920239       -1.3004835613
 H        -8.5647202534       11.1769195437       -2.4506236096
 H        -8.3815983815       11.5100358175       -0.6565426629
 H        -5.7018378532       12.6497757513       -1.9620746187
 H        -7.0395913019       12.5616502813       -2.8869698560
 H        -5.4610432950       11.7796953049       -3.5368319088
 Na       -8.3473443634        1.6453129026       -0.3956875327
