117

 C        -4.3366336176       11.2154379472       -0.3272813473
 C        -5.9094950001       10.7504631028       -0.4336677376
 O        -6.4366856851       10.3508939734        0.5705371756
 C        -6.4949568873       10.7635624615       -1.8547055600
 C        -6.4131082691        9.2684695799       -2.3893826261
 O        -6.0195367240        8.3034552979       -1.7623261403
 C        -7.1093277877        9.0408040716       -3.8019733290
 C        -7.3630751686        7.4786006802       -4.0927319505
 C        -8.7666240848        6.9929875494       -3.5362942183
 O        -9.5706351629        7.7434343705       -3.0566879770
 C        -9.0193834919        5.4310122486       -3.3734134193
 C        -8.4930540508        4.6910716247       -2.1481257113
 O        -8.7761834103        3.4837731927       -1.9785310003
 C        -7.5416777684        5.4448980030       -1.1422344724
 C        -8.1724478773        5.8118946094        0.1125097750
 C        -8.4418648931        4.7456139424        1.1547660537
 O        -8.6680224733        3.5966924148        0.8889098846
 C        -8.1574271966        4.9621063629        2.7620725173
 C        -8.3806552695        3.5583638429        3.6018387815
 O        -7.5564953835        2.7288112606        3.6047592796
 C        -9.8534786289        3.2418243213        3.9841391787
 C        -9.9601272751        2.1477843349        5.3154389740
 C       -11.3970023245        2.3698292993        5.7565347220
 O       -11.6831625854        3.3960092470        6.2551695454
 C       -12.5786515737        1.3171680564        5.4844375972
 C       -12.6832443259        1.1963588291        3.9586223691
 O       -11.7852579266        0.6234572578        3.3657693189
 C       -13.7663025496        1.9753459008        3.2132997366
 C       -13.9196609766        1.8631649460        1.5890066158
 C       -14.0369625545        0.4642401724        1.0498320816
 O       -14.6759361666       -0.3931929760        1.6518580124
 C       -13.5374074892        0.1494374989       -0.3770141634
 C       -12.0211371259        0.0613126476       -0.1816813615
 O       -11.2530975721        0.8167364227       -0.8411613581
 C       -11.4990272422       -0.9244122054        0.8197365419
 C       -10.5935510196       -2.0478530902        0.0375848238
 C        -9.5273706874       -1.2904472600       -0.7427828398
 O        -8.5348778266       -0.8741455002       -0.1792324012
 C        -9.4446639957       -1.5425564868       -2.2702079458
 C        -8.9968523046       -0.2466721187       -2.9871318849
 O        -8.5653309839        0.6558799704       -2.2988638383
 C        -9.0058661307       -0.1934853028       -4.4294918026
 C        -8.1538603548       -2.5279709794       -2.4384554689
 C       -10.6976942087       -2.0623736171       -2.9935637304
 C       -14.1170621175       -1.1944742352       -1.0555981984
 C       -13.8349465877        1.3645045210       -1.2568299624
 C       -12.0206624861       -0.0794411745        6.0221739001
 C       -13.8879610201        1.7176250621        6.2389840446
 C        -6.5355591325        5.2686357882        3.0301903073
 C        -8.8760335311        6.1377552476        3.2777199252
 C       -10.5170890672        5.1558589428       -3.2084684388
 C        -8.3692044669        4.8856607270       -4.7554642944
 C        -8.0069810515       11.1775976779       -1.6804196434
 C        -5.9012945261       11.7940972937       -2.8365056443
 H        -4.3618487062       12.1312424553        0.1569490044
 H        -3.7278771026       11.5575534842       -1.1969634960
 H        -3.8295671593       10.4024104776        0.0601373366
 H        -6.6381102827        9.3474529941       -4.7975822019
 H        -8.0580334388        9.4100614367       -3.7674713617
 H        -6.7359050194        6.8802982418       -3.3214207197
 H        -7.1820937033        7.2081407480       -5.1146765187
 H        -7.0768633664        6.3745598722       -1.6028242314
 H        -6.5916377152        4.9139895517       -0.9091588403
 H        -9.1981336140        6.3193465635       -0.0997230571
 H        -7.7231440011        6.7361070687        0.5022663537
 H       -10.3855096002        2.7525918982        3.2578186546
 H       -10.4039797398        4.1061744143        4.3811297350
 H        -9.3552338931        2.5958465438        6.1168316015
 H        -9.5798388638        1.2274969134        4.7649164640
 H       -13.5719068775        2.9410820020        3.5884334915
 H       -14.7627361232        1.5539618411        3.5447110401
 H       -13.1622877460        2.4989032908        1.1393644849
 H       -14.9410914017        2.2993267924        1.4209783632
 H       -12.3443391294       -1.3579311596        1.3394904763
 H       -11.0590513485       -0.4599396915        1.6728453403
 H       -11.3649700239       -2.5622691874       -0.6821276604
 H        -9.9786741014       -2.6984563650        0.6033404766
 H        -8.2888556280        0.4452648408       -4.8979240120
 H       -10.0859273720        0.1575682644       -4.7692911235
 H        -8.8113742258       -1.1505464352       -4.8771936163
 H        -8.5048135719       -3.5569937979       -2.4227894796
 H        -7.4448477060       -2.5578103696       -1.6322919767
 H        -7.6276973333       -2.4370468116       -3.3977152383
 H       -10.8182991607       -3.1494182061       -2.9339408252
 H       -10.6653312025       -1.8850951521       -4.0281281891
 H       -11.6152656019       -1.4713012402       -2.6868749340
 H       -13.4786420262       -1.5443371395       -1.7712379633
 H       -14.9967420930       -0.8919982615       -1.7298110247
 H       -14.5715952012       -1.9722175033       -0.3728847554
 H       -13.3231266067        1.3842466599       -2.2887053073
 H       -13.6072365605        2.2747788636       -0.7650155537
 H       -14.9703077946        1.4489584676       -1.4453882923
 H       -11.8308749652        0.1406679527        7.0660022277
 H       -11.0855929178       -0.3827133572        5.5317687397
 H       -12.5615152653       -0.9546157407        5.7906172596
 H       -13.6505511369        2.0482926110        7.2454047042
 H       -14.6225414098        0.9300435752        6.4022861404
 H       -14.4096653478        2.5768566122        5.7751092654
 H        -6.0100209574        5.4491061301        2.0691094922
 H        -6.0322064187        4.5089901971        3.5730025082
 H        -6.3714201982        6.1823024227        3.5320003994
 H        -8.5856702337        6.4147861240        4.2030712154
 H        -9.9174325677        5.9102025198        3.3682539300
 H        -8.8673795909        6.9236657891        2.6587050112
 H       -11.1129583184        5.5615296491       -4.0828697681
 H       -10.7901065184        5.4769347344       -2.2222148179
 H       -10.6817386411        4.0364437338       -2.9809259115
 H        -7.4427927119        4.3236245882       -4.5819234490
 H        -8.2278338386        5.7209990970       -5.4690667388
 H        -8.9102364117        4.1460720188       -5.2918533463
 H        -8.4466882664       10.4177112877       -0.9769260336
 H        -8.5416513608       11.1048615062       -2.5526751887
 H        -8.1526884717       12.0771261477       -1.1153723257
 H        -5.7941566706       12.8422130987       -2.3851944372
 H        -6.7411178762       12.0566107790       -3.5461328303
 H        -5.0359506566       11.3955114569       -3.4205866074
 Na       -8.4056220896        1.7665984779       -0.2785958008
