117

 C        -4.3577229694       11.2833791883       -0.4330190046
 C        -5.8551584157       10.8832809965       -0.6272036694
 O        -6.5216988636       10.5587240540        0.3363593944
 C        -6.5357622231       10.7653216948       -2.0269148598
 C        -6.5190763723        9.1818739962       -2.4917627045
 O        -5.8283536724        8.3703984896       -1.8820049819
 C        -7.1449361107        8.8070406728       -3.7445975777
 C        -7.2304160242        7.3157466841       -4.0141730647
 C        -8.5815192655        6.8914418908       -3.3353203840
 O        -9.3460401917        7.8002224590       -3.0509669783
 C        -9.0062987162        5.4207065875       -3.4681027062
 C        -8.3384904573        4.6182701934       -2.2697545162
 O        -8.7994666425        3.4986224056       -2.0995801689
 C        -7.5433789369        5.3975644760       -1.1510263860
 C        -8.1677724542        5.7785148263        0.2782662771
 C        -8.3543507100        4.6616946583        1.3078512251
 O        -8.9359767373        3.6162049061        1.0336066969
 C        -8.1572886673        4.9754986143        2.8500727031
 C        -8.3811402760        3.5325228836        3.5981410940
 O        -7.4440153517        2.8168545938        3.8053002142
 C        -9.7905833281        3.2509555412        4.1071320728
 C        -9.9515241671        2.2509891285        5.3606582983
 C       -11.3970435526        2.3897814389        5.7970111170
 O       -11.7425286423        3.4813691886        6.3254916495
 C       -12.4420839436        1.2860632302        5.5497639075
 C       -12.7085790303        1.3480569056        3.9205461134
 O       -11.8454043261        0.8160695058        3.1731796678
 C       -14.0505080370        2.1189945113        3.2451737927
 C       -14.2360541382        1.9633159056        1.7410575008
 C       -14.2999014049        0.4421621312        1.0328976116
 O       -14.6286971936       -0.5044637924        1.7141639449
 C       -13.5927645711        0.2319572172       -0.4665943237
 C       -12.0474307834        0.1001848455       -0.2333089016
 O       -11.2292246684        0.8774391458       -0.7075421896
 C       -11.6198648056       -0.9987138637        0.7462687109
 C       -10.7240233908       -2.0735487589        0.2453139619
 C        -9.5288024807       -1.6130947050       -0.6651274771
 O        -8.7013515925       -0.8293136951       -0.1188541282
 C        -9.4738795499       -1.6200166553       -2.2899223011
 C        -8.8696787694       -0.1638770199       -2.9148287218
 O        -8.2958764225        0.6832023184       -2.2920956893
 C        -8.8710744155       -0.1054984582       -4.4507396236
 C        -8.3234814602       -2.6878992798       -2.5225652964
 C       -10.7452763675       -2.1050448417       -2.9730260104
 C       -13.9923380539       -1.1714029976       -0.9888651599
 C       -13.9139553528        1.3294126950       -1.4766865617
 C       -11.9131523611       -0.0754777406        6.1358182450
 C       -13.7430728988        1.4650694735        6.3455356525
 C        -6.5429568475        5.2827547934        2.7860160898
 C        -8.8948510133        6.2737006140        3.3444916115
 C       -10.5447515532        5.2579860285       -3.3019528114
 C        -8.4054322006        4.6895779276       -4.7150381990
 C        -7.9790792120       11.3502730340       -1.7842248525
 C        -5.6251106378       11.5386159511       -3.0680132405
 H        -4.1554280052       12.3930570589       -0.4620004402
 H        -3.7497409341       10.9984061449       -1.2788835941
 H        -3.9933580848       10.5292823518        0.3088771000
 H        -6.4488478229        9.1116041386       -4.5384793783
 H        -8.1451705228        9.1539236453       -4.0099662853
 H        -6.5102353328        6.7273250793       -3.5037597615
 H        -7.2887098109        7.1461189645       -5.0605087223
 H        -7.1108661252        6.3528603087       -1.6075495194
 H        -6.6017893002        4.9142764385       -1.0260729097
 H        -9.1853294676        6.1097076675        0.0921234618
 H        -7.7973342055        6.8143150419        0.6575723473
 H       -10.3557961644        2.6905656218        3.4136191900
 H       -10.2819040791        4.1302060574        4.4502000494
 H        -9.3210799246        2.5983393994        6.1702590008
 H        -9.7549117810        1.2330723205        4.8542712636
 H       -13.7880267836        3.1758516564        3.4473906056
 H       -14.9859242127        1.8060966573        3.7439390886
 H       -13.4708103040        2.6284936238        1.3177746584
 H       -15.2060503525        2.4693090288        1.6511227589
 H       -12.3692225026       -1.4007436859        1.5135013604
 H       -11.0252986747       -0.4703188812        1.4453673377
 H       -11.3357752576       -2.8499684277       -0.1130631143
 H       -10.1210929063       -2.3691056820        1.0649310817
 H        -7.9096373591        0.1700912845       -4.9384466245
 H        -9.6395764264        0.6318869554       -4.7522138801
 H        -9.1419098536       -1.0178309666       -4.9112199333
 H        -8.5889124239       -3.7126338480       -2.3640758967
 H        -7.4867676289       -2.5600617228       -1.8885143295
 H        -7.9217707191       -2.5820058707       -3.5369541370
 H       -10.9238849811       -3.1029342166       -2.6908611873
 H       -10.7314718911       -2.1307460978       -4.0648084252
 H       -11.6252448445       -1.3703372754       -2.7641155217
 H       -13.7674116385       -1.1538041435       -2.0513699785
 H       -15.0887588400       -1.3359117178       -0.9099233516
 H       -13.6357394908       -1.9798757833       -0.4373322539
 H       -13.7017990809        1.0337850703       -2.5052822179
 H       -13.4013566201        2.3050449210       -1.2211997622
 H       -14.9751013899        1.6015247941       -1.4682673573
 H       -11.5861576693        0.2864158673        7.2152938923
 H       -11.0890468697       -0.5306450911        5.6337042882
 H       -12.5958389093       -0.8584338240        6.1180303798
 H       -13.5397171533        1.7378649007        7.4503896863
 H       -14.5019057257        0.6770541128        6.2953407129
 H       -14.3258037483        2.2812427139        5.9903545720
 H        -6.1671274958        5.3877693110        1.7968084354
 H        -5.9267511935        4.5756510220        3.3769729197
 H        -6.3112878832        6.2329662934        3.2055874586
 H        -8.5720166190        6.7349663338        4.2895098320
 H        -9.9047694162        6.0231787618        3.4728098354
 H        -8.9033048564        7.0623412092        2.6201863510
 H       -11.1240778200        5.4053138740       -4.2536865824
 H       -10.7606625128        5.9375926412       -2.4615827606
 H       -10.7968834031        4.3504709887       -2.8064349883
 H        -7.3315066872        4.8756247546       -4.7436294905
 H        -8.8195573289        4.8489990884       -5.6410877161
 H        -8.3600299846        3.5771867503       -4.5255070365
 H        -8.1983640641       11.1123868498       -0.7850983592
 H        -8.7739100634       10.9091611120       -2.4009069904
 H        -8.0099557721       12.4323894650       -1.7361019891
 H        -5.6298178547       12.7000343629       -3.1037953224
 H        -5.8164010645       11.3234556077       -4.1156185509
 H        -4.7219445371       11.0494177362       -2.8964177556
 Na       -8.5770163361        1.7536164051       -0.2468789904
