117

 C        -4.3863791145       11.2842404658       -0.5120891201
 C        -5.7213332417       10.8122721140       -0.6853951137
 O        -6.5496081857       10.7714960738        0.2418240070
 C        -6.4437962974       10.6965030782       -2.0817095519
 C        -6.4471655736        9.2247626358       -2.5557099866
 O        -5.7113505983        8.5452059648       -1.8517476973
 C        -6.9986332667        8.8439786997       -3.9397042625
 C        -7.1278719358        7.3275406791       -4.0180031690
 C        -8.5448053689        6.8414767572       -3.4601025850
 O        -9.2588199642        7.6370543470       -2.8950431296
 C        -8.9562755443        5.3859537926       -3.4181243525
 C        -8.4892227179        4.6263593751       -1.9701620831
 O        -8.5927616440        3.4430412341       -2.0110459841
 C        -7.5499114234        5.2225597131       -1.0578064636
 C        -8.3028965571        5.7226824860        0.2742158931
 C        -8.6009658242        4.6355269444        1.3740283156
 O        -9.1010739054        3.5332983067        1.1472926704
 C        -8.0239422342        4.9872183547        2.7732713204
 C        -8.3026622957        3.7311885336        3.7574159239
 O        -7.3531268478        2.9096443034        3.9693182166
 C        -9.7436291594        3.3643302219        4.1276725899
 C        -9.9483888079        2.3808014998        5.2432091337
 C       -11.4319336871        2.5068620203        5.8448740635
 O       -11.8617716587        3.5054140898        6.4043005808
 C       -12.4620851065        1.2646513411        5.5095990511
 C       -12.7929446643        1.3271424717        3.9107635749
 O       -11.9939898794        1.0771623954        3.0549707451
 C       -14.0914051413        1.9420253493        3.3828484383
 C       -14.3505156302        1.8606480507        1.7919899502
 C       -14.2410777678        0.4937103455        1.1787936842
 O       -14.6221671933       -0.5007571528        1.6739070805
 C       -13.6375633784        0.3414821722       -0.4075671125
 C       -12.0101808668        0.2291861973       -0.1264203804
 O       -11.2515304421        0.9791012552       -0.6381543913
 C       -11.5803285539       -1.0365778277        0.8168079198
 C       -10.7058672088       -2.1674337040        0.1941832119
 C        -9.6033700954       -1.4506351837       -0.6174846084
 O        -8.7996359883       -0.7960329328        0.0011196222
 C        -9.4032376796       -1.6189955214       -2.2348567859
 C        -8.7435493477       -0.3654008139       -2.8454180230
 O        -8.1567400923        0.5360932370       -2.2777222971
 C        -8.8137464631       -0.0492839968       -4.4420699924
 C        -8.4626958844       -2.7735932581       -2.6038770069
 C       -10.7390413988       -2.0445431695       -2.8429668628
 C       -14.0630019616       -1.1015439086       -0.8728388728
 C       -14.0017839073        1.3237125571       -1.5497222992
 C       -11.7597134827       -0.0344911396        5.9806406904
 C       -13.6899228029        1.4215510095        6.3696020401
 C        -6.5423665966        5.2791236634        2.7349408442
 C        -8.8171999663        6.1501027867        3.3177479957
 C       -10.5310679153        5.4149240198       -3.5337001037
 C        -8.5352022361        4.4745023413       -4.6160411170
 C        -7.8330203264       11.4390437484       -2.1640714171
 C        -5.5807982100       11.3049541898       -3.3385834496
 H        -4.2826982151       12.1815260914       -1.1940369886
 H        -3.6206002192       10.6293488820       -0.9698443183
 H        -4.1104312330       11.2072050325        0.5774972168
 H        -6.2907984629        9.0760771635       -4.7090434877
 H        -8.0659354896        9.2226803781       -4.2416111560
 H        -6.4781170410        6.8224249491       -3.4002415619
 H        -7.0545282537        7.0133836197       -5.0705575874
 H        -7.0534340551        6.0173288535       -1.5150931721
 H        -6.7141131853        4.5295167383       -0.9253816005
 H        -8.9508441729        6.4921856698       -0.0252273047
 H        -7.5980811544        6.3544050332        0.8170402136
 H       -10.1773970490        2.8685008906        3.1964482782
 H       -10.2949728741        4.1910607956        4.5747074644
 H        -9.2123285353        2.7745573329        5.9584689579
 H        -9.8349286455        1.4167892163        4.9178015902
 H       -14.0661049890        3.0753817935        3.5866185167
 H       -14.9087390684        1.4943775624        3.8858163028
 H       -13.6061494889        2.5575615555        1.3831654489
 H       -15.3112319075        2.3200765446        1.7068206703
 H       -12.4218018190       -1.4942804652        1.3519764655
 H       -11.0290528150       -0.6200528366        1.7237649666
 H       -11.3606389618       -2.7522833106       -0.3240595470
 H       -10.1495922648       -2.7536614930        0.9539975210
 H        -7.7577452114       -0.0474154874       -4.7643932019
 H        -9.1591510554        0.8872255806       -4.5886663141
 H        -9.2715843323       -0.7371654080       -5.1864478104
 H        -8.6623407452       -3.7914573881       -2.2559997115
 H        -7.4215813121       -2.5558477025       -2.3551674615
 H        -8.4231194454       -2.7140205458       -3.6580186984
 H       -11.1087920652       -2.9520140461       -2.3445002680
 H       -10.7351030249       -2.3122657466       -3.9555950850
 H       -11.3878121235       -1.2518636558       -2.8175222975
 H       -14.4252554322       -0.9985556849       -1.9683592310
 H       -14.7424308165       -1.6100476062       -0.2226850865
 H       -13.2915741267       -1.8260828704       -0.8298977398
 H       -13.9416094964        0.7662079129       -2.4455467232
 H       -13.3414217092        2.2302001305       -1.6112149584
 H       -14.9872709988        1.7205387614       -1.5589848898
 H       -11.2806156193        0.1248624497        6.8929679503
 H       -11.0551189604       -0.3707135636        5.2093033039
 H       -12.4758186908       -0.9517280442        5.9853345488
 H       -13.4264061669        1.4353407780        7.4231768247
 H       -14.6091293309        0.8134151832        6.1079023176
 H       -14.1947764239        2.4111831477        6.2136643352
 H        -6.0313830092        5.2849090474        1.8126912844
 H        -6.1106742723        4.5577560450        3.4485929433
 H        -6.2651694270        6.2463788864        3.2247734967
 H        -8.5464883890        6.4545452613        4.3826699514
 H        -9.8954343743        5.8681907531        3.3356045198
 H        -8.7135121598        7.1678455514        2.7351824138
 H       -10.8496743681        5.5115700769       -4.5464512408
 H       -10.8573085913        6.2065455705       -2.8478877543
 H       -10.9905144400        4.5290191517       -3.1736954363
 H        -7.8909891199        4.9718164194       -5.3149709720
 H        -9.4000310215        4.1308993507       -5.2305855471
 H        -8.0087833439        3.5635376188       -4.3739132967
 H        -8.2000860838       11.6848060648       -1.2029259440
 H        -8.5833481758       10.8045649598       -2.7368670436
 H        -7.7418268194       12.4327647852       -2.6360136139
 H        -5.6555200460       12.3068649831       -3.4545444069
 H        -5.7335608172       10.9720623901       -4.3285160151
 H        -4.5866332458       10.9332474644       -3.1047659873
 Na       -8.8682167263        1.6677313218       -0.3025990955
