117

 C        -4.3139394978       11.2095221194       -0.6988115591
 C        -5.7065914471       10.9567159713       -1.2264109510
 O        -6.6368371211       11.3406375277       -0.5484392270
 C        -6.0668267900       10.6564238334       -2.7791889844
 C        -6.0750890149        9.1427824463       -2.9198013131
 O        -5.7844325470        8.5753076510       -1.8788120816
 C        -6.6767127887        8.4596043665       -4.1596300498
 C        -6.9860720014        7.0286605863       -4.0500464712
 C        -8.3031035610        6.6390635176       -3.2199451590
 O        -8.7873296446        7.4342031423       -2.4725717845
 C        -8.8808856323        5.1560523714       -3.3275979056
 C        -8.5058677795        4.3270251431       -1.9836297236
 O        -9.0993233704        3.2631093451       -1.9608767234
 C        -7.7882838476        5.0372855069       -0.8331035299
 C        -8.7228931912        5.6707022083        0.2634610848
 C        -8.6568233127        4.5548630189        1.3908478690
 O        -9.1042869047        3.4227585049        1.2551767679
 C        -7.9795065053        5.0133415824        2.7464567557
 C        -8.4733160427        3.9049717735        3.9523919219
 O        -7.4960050794        3.3722190741        4.5813576306
 C        -9.9193442952        3.6903021752        4.1909095231
 C       -10.0211940029        2.5480720413        5.2824276155
 C       -11.5271328534        2.5941180689        5.7159867753
 O       -11.9448373879        3.5781280090        6.3244716936
 C       -12.3910803598        1.2556730119        5.2948409790
 C       -12.7926031674        1.5983892689        3.7985943262
 O       -11.9718599129        1.5586828795        2.8315363295
 C       -14.2887198929        1.7370610030        3.5036242027
 C       -14.4862105860        1.7222477915        2.0066431080
 C       -14.4384177223        0.3229105863        1.4293930128
 O       -14.7170190718       -0.6858324605        1.9570911622
 C       -13.7231845954        0.3160029109       -0.0350886011
 C       -12.2509644536        0.2966621928        0.2362496999
 O       -11.6151148390        1.1227518839       -0.3202835696
 C       -11.5066539810       -0.8448908236        1.0702505869
 C       -10.8272801123       -1.9317388457        0.1971120358
 C        -9.6668250853       -1.4126597185       -0.6481321784
 O        -8.7926265297       -0.7976366009       -0.0260545297
 C        -9.4268277329       -1.6025733162       -2.2531069428
 C        -8.4975203347       -0.3117214954       -2.8725964155
 O        -7.7823366505        0.3327534309       -2.1704647549
 C        -8.3590037992       -0.2154359747       -4.4310728498
 C        -8.7008032847       -2.9592552925       -2.2246559205
 C       -10.8915567763       -1.7183451996       -2.9198711327
 C       -14.2257691956       -0.9921854064       -0.7360508238
 C       -14.0838002982        1.5242215239       -0.8550182940
 C       -11.6949930183       -0.0644429508        5.3032309890
 C       -13.5790861869        1.1602917239        6.2727808494
 C        -6.4787772908        5.0074149572        2.5519076869
 C        -8.5505645171        6.3853084057        3.2327400460
 C       -10.4179667981        5.2258085322       -3.2180663656
 C        -8.2489039120        4.3877905617       -4.5305848800
 C        -7.5087560421       11.2523250866       -2.9656345617
 C        -5.0079563314       11.5018151896       -3.5874543602
 H        -3.6872848120       10.6567534811       -1.3975764963
 H        -4.1431757150       10.7048648853        0.1692082094
 H        -3.9301529836       12.2264219891       -0.4035358436
 H        -5.9826189179        8.5869169175       -4.9847132590
 H        -7.6254823312        9.1163681257       -4.3723172995
 H        -6.1276583693        6.6084474456       -3.5359037370
 H        -7.1652703745        6.5196183487       -5.0126925183
 H        -7.1593300570        5.7768585068       -1.4367137593
 H        -7.0254936625        4.4145640639       -0.3198805504
 H        -9.8108429862        5.8294980483        0.0835950355
 H        -8.3940585158        6.7660812538        0.5012999458
 H       -10.4047518854        3.2899417616        3.3318982349
 H       -10.4128038202        4.4950858217        4.6350508981
 H        -9.3927163939        2.7591607983        6.2141534751
 H        -9.8823124029        1.5577912794        4.8063104370
 H       -14.5361100783        2.7579902191        3.8704590323
 H       -14.9308177854        0.9703743231        3.9657206798
 H       -13.5775320025        2.3258970241        1.6833150779
 H       -15.4064352970        2.2472784508        1.6800148605
 H       -11.9746471501       -1.4479133372        1.8842206825
 H       -10.6138692176       -0.4444688937        1.5117147359
 H       -11.5029180746       -2.4610911955       -0.3072296082
 H       -10.4398760539       -2.5844349897        1.0008046741
 H        -7.5668611823       -0.9916592389       -4.7589891198
 H        -7.9237022925        0.6987805569       -4.6562425498
 H        -9.2669390692       -0.4309185432       -5.0527733267
 H        -9.3006503706       -3.6326142866       -1.5943088226
 H        -7.7040965294       -2.8194782119       -1.7842845350
 H        -8.4428579620       -3.4680672582       -3.1767732278
 H       -11.3168361097       -2.6756785518       -2.6146116351
 H       -11.0941000186       -1.6074851752       -4.0524343960
 H       -11.5882258320       -0.9990478133       -2.4896213780
 H       -15.0379217318       -1.4503290777       -0.0793310699
 H       -13.4150715857       -1.5640494316       -1.0506817090
 H       -14.8551925709       -0.8540729559       -1.6105620961
 H       -13.5220860346        1.6405335117       -1.7799221008
 H       -14.0209082039        2.5652701588       -0.2992000959
 H       -15.1039354450        1.5138515903       -1.2387809993
 H       -11.2579637462       -0.2441489005        6.2942750350
 H       -10.8769985326       -0.1387150501        4.5853277764
 H       -12.4584917625       -0.8915637736        5.2469988014
 H       -13.1713818180        1.1083979047        7.2687396195
 H       -14.3296229744        0.5414365672        5.8955410458
 H       -14.1883311328        2.0009291783        6.3087943753
 H        -6.1753773818        4.6769729585        1.6016577465
 H        -5.9440677134        4.4603082532        3.3682497440
 H        -6.1057959351        6.0153116513        2.6954846975
 H        -8.4768980929        6.4619465574        4.2680956393
 H        -9.5163924234        6.4026283962        3.0554845170
 H        -8.0766428316        7.2653836374        2.8956294709
 H       -10.9550649058        5.8127577118       -4.0157355839
 H       -10.6531547327        5.6798279005       -2.1712954338
 H       -10.8248055815        4.2943597418       -3.4995713254
 H        -9.0460390560        4.0636713859       -5.1748955955
 H        -7.6341870194        3.5408592129       -4.3498923932
 H        -7.5441937375        4.9522641805       -5.1921511310
 H        -8.1370742314       11.2696599377       -2.1506748016
 H        -8.0707823409       10.9382724958       -3.8828708810
 H        -7.2704562825       12.2710457678       -3.2510131521
 H        -4.6896295586       12.3583272117       -2.9781558312
 H        -5.5603197989       11.9079026743       -4.5274436339
 H        -4.0605249301       10.9982119001       -4.0620465793
 Na       -9.3801320211        1.6692524964       -0.4507028964
