117

 C        -4.6034075484       11.0144453248       -0.9957281496
 C        -5.6690575817       11.3863462601       -1.9380566455
 O        -6.3307731656       12.3753223188       -1.8359210887
 C        -5.7550927260       10.5226785849       -3.3386720132
 C        -5.9337693727        8.9785189015       -3.2208895342
 O        -5.6889264076        8.2422659617       -2.2911856258
 C        -6.4805546914        8.1703455362       -4.5315147134
 C        -6.4113174886        6.7139611522       -4.1348131457
 C        -7.6677981022        6.3238945578       -3.2530537953
 O        -8.0098534312        7.0909961566       -2.3593119349
 C        -8.6294606249        5.1274475983       -3.4811294482
 C        -8.7692912116        4.1175119828       -2.2072930067
 O        -9.5411606675        3.2096182786       -2.3126261734
 C        -7.9970432209        4.4666345562       -0.8096146442
 C        -8.8777951141        4.9262239257        0.4021473722
 C        -8.4924781738        4.2397158488        1.6491240321
 O        -8.7850517211        3.0120548820        1.6863900657
 C        -7.9066842886        4.8895788864        3.0225336450
 C        -8.3856818922        4.3326300346        4.3419897737
 O        -7.6539477589        4.3060300719        5.2355232108
 C        -9.9632838854        4.0420933402        4.4674744258
 C       -10.2315354582        2.8853348096        5.3827388157
 C       -11.6767494479        2.6087239943        5.6288700869
 O       -12.3780732842        3.3526976654        6.2628685521
 C       -12.3629636667        1.2431886625        5.1164013154
 C       -13.0609025208        1.6298105509        3.7514527799
 O       -12.5015243781        1.4916386530        2.7177535416
 C       -14.4811795543        2.1042291052        3.7534296587
 C       -15.2185421506        1.4112926214        2.5802675871
 C       -14.4908477587        0.2829593048        1.9003176581
 O       -14.4174305052       -0.8361685791        2.4523182219
 C       -14.0051373027        0.3585610589        0.3473532196
 C       -12.4748817536        0.4744676432        0.4683048723
 O       -11.8471706540        1.4049199216       -0.1349661274
 C       -11.7492434684       -0.5669942121        1.1878505695
 C       -11.1229805479       -1.5706939935        0.1339447341
 C        -9.7500829103       -1.0104378746       -0.4116223180
 O        -9.0433421450       -0.5054761166        0.4610460006
 C        -9.4484283557       -1.4209647163       -1.9754818799
 C        -8.3432926003       -0.4586082776       -2.6581606730
 O        -8.2573695352        0.7243415937       -2.2515155458
 C        -7.3909492002       -0.9334559048       -3.8229961702
 C        -9.0797626682       -2.9230353832       -1.8083152306
 C       -10.7340720911       -1.2545940192       -2.8405329895
 C       -14.6048153238       -0.8116083897       -0.5038183483
 C       -14.5126082199        1.6571955824       -0.2478165215
 C       -11.3153432395        0.0573467590        4.7887203048
 C       -13.5066221436        0.7796978214        6.1324667411
 C        -6.2843023256        4.7990512911        2.9373449166
 C        -8.3408019107        6.4751952213        2.9424113972
 C       -10.0305294650        5.7030900923       -3.7561537226
 C        -8.3424092097        4.2009066034       -4.6851827575
 C        -6.9685677890       11.1034516902       -4.1436656120
 C        -4.4315445276       10.6942688751       -4.2170033785
 H        -4.4174911949       11.6913510016       -0.1709136896
 H        -3.6314032306       10.9483731732       -1.5724373666
 H        -4.8402765418       10.0761437111       -0.6049796546
 H        -6.0521341317        8.3036865605       -5.5487272612
 H        -7.4890370202        8.6032837468       -4.6994060622
 H        -5.5762104669        6.4264217496       -3.5167565763
 H        -6.3518362449        6.1122934332       -5.0377143792
 H        -7.2400763508        5.1533537290       -1.0634389571
 H        -7.5064139320        3.4185040798       -0.6899037503
 H        -9.9717203967        4.6836891162        0.1316140843
 H        -8.7607392174        5.9367003860        0.6946396577
 H       -10.4018093532        3.8178861628        3.4586123786
 H       -10.3752431409        4.9163327329        4.8754422266
 H        -9.4596137382        3.1730177315        6.1378532245
 H        -9.8015146673        2.0029980777        4.9085397011
 H       -14.7591895424        3.1953911779        3.7726591291
 H       -14.9813628813        1.8854444774        4.6643231310
 H       -15.3083885762        2.2525514569        1.8628826990
 H       -16.2703011593        1.0770564649        2.7953063370
 H       -12.5145535649       -1.0986269240        1.6736653105
 H       -10.8603960278       -0.1924371168        1.7573343523
 H       -11.9417955265       -1.7210235014       -0.6146020962
 H       -10.9346107303       -2.4651988163        0.4953854587
 H        -7.9411778414       -1.6298193559       -4.3862095119
 H        -6.5256573842       -1.5703749880       -3.3745001833
 H        -6.9807529829       -0.1135750674       -4.4644038180
 H        -9.6030445223       -3.6552033502       -1.1413745913
 H        -7.9775141504       -2.8871014349       -1.6570597713
 H        -9.2123849607       -3.2668231348       -2.8318006858
 H       -11.6321282454       -1.9380493283       -2.6481642908
 H       -10.4915110341       -1.4262226488       -3.8769093555
 H       -11.2360611755       -0.2947189180       -2.6732270552
 H       -15.3418147305       -0.4609893400       -1.1096153441
 H       -15.2127084033       -1.5574701620        0.1177019042
 H       -13.7666911698       -1.2174298873       -1.0501642139
 H       -14.2975971009        1.8734490728       -1.3367370403
 H       -14.1624826817        2.5594542221        0.1446192493
 H       -15.6449518405        1.7006854244       -0.3035597573
 H       -10.4755202474       -0.0853628150        5.5113138928
 H       -10.8704052052        0.3751291239        3.8302384872
 H       -11.9249430731       -0.8338231775        4.7829134096
 H       -13.1062918083        0.2151321135        6.9573832180
 H       -14.2323621734        0.1166053410        5.6301991072
 H       -14.1560214803        1.5995899963        6.4969682389
 H        -5.9581724952        4.0681576659        3.6875005500
 H        -5.7212936853        5.6707232087        3.1496275440
 H        -6.0158630950        4.5055085065        1.9008358899
 H        -8.2243862725        6.9190233534        3.8865047776
 H        -9.3375875173        6.5895609200        2.6090896680
 H        -7.7386286559        6.9027611705        2.2713064470
 H        -9.9482185553        6.4577114879       -4.5631172840
 H       -10.2670887945        6.4512290852       -3.0061633254
 H       -10.9416046094        4.9920642632       -4.0025708580
 H        -7.2747807839        3.8831746254       -4.7089126339
 H        -8.6950200506        4.6684954663       -5.6451126147
 H        -8.8943238357        3.3127548756       -4.5760142706
 H        -6.8890967169       10.9820710027       -5.2447178187
 H        -7.2567085524       12.0514260299       -3.8229511221
 H        -7.8500475650       10.5383999632       -3.8624178240
 H        -4.4835848517       11.2994725092       -5.2157178920
 H        -4.0415720545        9.6822864314       -4.4511668192
 H        -3.7870779447       11.4296067698       -3.6878523947
 Na       -9.5521579102        1.7644305978       -0.2878288083
