117

 C        -4.6094387774       11.1367285142       -0.9345850275
 C        -5.5531623970       11.4208064651       -2.1516269146
 O        -6.2363721780       12.4116817735       -2.1103093983
 C        -5.6732682562       10.4297870431       -3.4477608381
 C        -5.8532361764        8.8749870889       -3.3570804221
 O        -5.6457533536        8.4287972088       -2.2482517477
 C        -6.4450671746        8.0917484827       -4.5156247658
 C        -6.5324036953        6.6202316680       -4.3000207965
 C        -7.6161878857        6.3107543945       -3.2723999373
 O        -7.8600989798        6.9666641877       -2.2810617641
 C        -8.6054964343        5.0378192232       -3.5219631650
 C        -8.8381306093        4.1901435773       -2.1712569983
 O        -9.7072672342        3.3220876622       -2.2170027163
 C        -8.1027586146        4.3570313737       -0.8258158753
 C        -8.9079149066        4.8224213679        0.3146245541
 C        -8.4866683984        4.1421257604        1.7382789319
 O        -8.5748002865        2.9068538863        1.7795000605
 C        -7.9242522224        4.9422810445        2.9238845779
 C        -8.4521710602        4.4613504627        4.3303182911
 O        -7.7596427549        4.3277234842        5.3642714812
 C        -9.9738464559        4.1431685586        4.5759517688
 C       -10.2193778177        2.8710884850        5.3987215562
 C       -11.7068466944        2.5503938304        5.5623841302
 O       -12.3593966665        3.3648203066        6.2478616631
 C       -12.3446789737        1.2363285352        5.0142771957
 C       -13.1533003806        1.5312514221        3.7811041506
 O       -12.6804011267        1.4495937721        2.6607854726
 C       -14.5763283781        2.0926243887        3.7734637933
 C       -15.3991193810        1.5171597385        2.6313661507
 C       -14.5729129220        0.2823155506        1.9621717103
 O       -14.2015413869       -0.7042146612        2.5577876105
 C       -14.1508485078        0.4637084568        0.4646503220
 C       -12.5258446784        0.4189472355        0.5296941343
 O       -11.9499411359        1.3477303755       -0.1036805584
 C       -11.7168487384       -0.6666234609        1.2457496894
 C       -11.1222607831       -1.5233565060        0.1127093400
 C        -9.7671338640       -0.9825068141       -0.4061815380
 O        -8.9828535132       -0.3892133008        0.2399429930
 C        -9.4436638826       -1.3647097439       -1.8982136912
 C        -8.3892942040       -0.4514021070       -2.4036670431
 O        -8.2367205977        0.7639274818       -2.1285127012
 C        -7.3503738657       -1.0887878487       -3.3692185286
 C        -9.0607307455       -2.8718967394       -1.9702555676
 C       -10.7017963032       -1.3045012346       -2.7013879506
 C       -14.5777780495       -0.7117854077       -0.4031562673
 C       -14.5241493501        1.8230180180       -0.1595810026
 C       -11.2510643585        0.2248294736        4.7868634930
 C       -13.3087799050        0.7710221669        6.0267892035
 C        -6.3873365375        4.7710907832        3.0364900710
 C        -8.3175686475        6.4260216298        2.9450466309
 C        -9.9808705465        5.6098551299       -3.7623579323
 C        -8.3005439108        4.0889954415       -4.8574625486
 C        -6.8876255445       10.8869510246       -4.3875592902
 C        -4.2568880945       10.6876412795       -4.2655258222
 H        -4.0519618520       12.0812230490       -0.6036848286
 H        -3.7676160746       10.5745823003       -1.3426736218
 H        -5.0328015140       10.6073992058       -0.0011803780
 H        -5.7402895671        8.3080684130       -5.4068464641
 H        -7.2512452023        8.6126648021       -4.8177295311
 H        -5.6541621801        6.1899122975       -3.8622495543
 H        -6.6982425248        6.1189062083       -5.1674598347
 H        -7.1494679076        4.9084579973       -1.0008609406
 H        -7.8828418364        3.3006999350       -0.7751927808
 H        -9.9162285450        4.5165794591        0.1163498225
 H        -8.7991627745        5.8785290131        0.4826844302
 H       -10.3840544612        3.9293081160        3.5963619730
 H       -10.4587750742        5.0912458136        4.9966290847
 H        -9.6711600395        3.1059911559        6.2373903744
 H        -9.5189441813        2.1118815469        4.9802590222
 H       -14.7063781080        3.1465946895        3.8197041860
 H       -15.2075063999        1.9223027342        4.6914858226
 H       -15.5357192034        2.2983916579        1.8921385389
 H       -16.4200246394        1.2500969992        2.9852214326
 H       -12.4403868595       -1.2929201195        1.8247471040
 H       -10.7862362999       -0.2801880533        1.6893780065
 H       -11.9035276483       -1.6908139931       -0.6388536513
 H       -10.8335268119       -2.5846574027        0.4086503869
 H        -7.9479717817       -1.5279104658       -4.1811003055
 H        -6.7371791726       -1.9578631340       -2.9878822426
 H        -6.7049445697       -0.3141551473       -3.7333535698
 H        -9.7461991764       -3.5475621559       -1.4843203446
 H        -8.0632335266       -2.9730802181       -1.5773805821
 H        -9.0820693827       -3.1061068692       -3.0646761571
 H       -11.3430579041       -2.1451184996       -2.6342046888
 H       -10.3957447617       -1.2977871299       -3.7206691817
 H       -11.4686029801       -0.4609687648       -2.4585685584
 H       -15.6380813310       -0.6915044168       -0.2688141869
 H       -14.3476388296       -1.7465545416       -0.0413584879
 H       -14.2078365113       -0.4938481379       -1.3507066992
 H       -14.0649508803        2.0037596780       -1.1342274011
 H       -14.2180792554        2.7358905981        0.3302250813
 H       -15.5563101715        1.9525076084       -0.4326776530
 H       -10.6397598230        0.0654936540        5.7859852012
 H       -10.5443544741        0.6703876933        4.0605602179
 H       -11.7077604101       -0.6634341552        4.4905583574
 H       -12.7107095661        0.4819345962        6.9707964715
 H       -13.8828312245       -0.1581135593        5.8624883938
 H       -13.9871316141        1.5491942208        6.2231549843
 H        -6.2640551374        4.1582581942        3.9579406452
 H        -5.9485964553        5.6559336303        3.4212264896
 H        -5.8294076872        4.4681951461        2.1883121360
 H        -8.4995451296        6.6055352740        4.0172370766
 H        -9.1425119313        6.6270155776        2.3488101453
 H        -7.4707893740        7.0895546185        2.5637721296
 H        -9.9585032048        6.4307871763       -4.5299296940
 H       -10.3689299219        6.2196301561       -2.9389025569
 H       -10.7373263102        4.8373059108       -4.0443806843
 H        -7.3378113079        4.3248752113       -5.2721694084
 H        -9.0357580658        4.2494038673       -5.6007169459
 H        -8.2625195741        2.9982935612       -4.6393985306
 H        -6.6741291991       10.9392934873       -5.4497636038
 H        -7.2415129582       11.8045690993       -4.0388441349
 H        -7.7818542493       10.2636971568       -4.2580530102
 H        -4.4751545025       11.1241283260       -5.3180499788
 H        -3.6596712555        9.8115334773       -4.4161640013
 H        -3.8210327741       11.5685838890       -3.8821794880
 Na       -9.7971680663        1.8174450403       -0.5206512900
