117

 C        -4.7114379383       11.0978343098       -1.3375891084
 C        -5.6371423945       11.5158685173       -2.4954033280
 O        -6.1672729672       12.5500436373       -2.6914543372
 C        -5.4680741426       10.4275999275       -3.7561142900
 C        -5.6330688212        8.9052670926       -3.2858809904
 O        -5.3550172305        8.5393421951       -2.1582886025
 C        -6.0443063454        7.9374470482       -4.4967496374
 C        -6.6485144914        6.5449471404       -4.3807269673
 C        -7.6794141570        6.1330072924       -3.2677665227
 O        -7.5375388655        6.6166768855       -2.1663111546
 C        -8.7114681029        4.8695920674       -3.5150723469
 C        -9.0812363724        4.2462331531       -2.1414518750
 O       -10.0711210967        3.5377338746       -2.1254419607
 C        -8.0055494310        4.1060190390       -0.9154820559
 C        -8.7346492894        4.6866077170        0.3573811541
 C        -8.3741101810        4.0290523236        1.5953592883
 O        -8.3921308385        2.8146918314        1.7384542953
 C        -8.0610869917        4.9418825320        2.8924496480
 C        -8.6187671064        4.4814700064        4.4069877849
 O        -7.9000574061        4.4093808530        5.3159031986
 C       -10.1182071183        4.3025744329        4.5390245451
 C       -10.3636459342        2.9894527534        5.4362826065
 C       -11.7427235204        2.7445598943        5.6121358880
 O       -12.5132413473        3.4975847131        6.1284886087
 C       -12.3247036329        1.2226038335        5.1388084558
 C       -13.2178042994        1.6283653635        3.9086337695
 O       -12.5227510322        1.9066807939        2.9151026120
 C       -14.6565027641        1.9829930615        4.0168157670
 C       -15.6519362564        1.4534118966        2.8812264978
 C       -14.7833046354        0.4352218497        2.1054195006
 O       -14.4635636134       -0.6100093677        2.6804794587
 C       -14.1791516725        0.5876661237        0.5901657333
 C       -12.5227744233        0.4666515804        0.4545382294
 O       -11.9824516653        1.2925032524       -0.2496952849
 C       -11.8769879618       -0.6515441107        1.2431053209
 C       -11.0412240540       -1.7560236473        0.4350938501
 C        -9.9381222621       -1.0591779777       -0.4494455319
 O        -9.2652124152       -0.2965712459        0.2702837927
 C        -9.4310967183       -1.4629655097       -1.9267466899
 C        -8.1911839423       -0.5607871703       -2.3248776807
 O        -8.3770761954        0.6095979009       -2.0155824093
 C        -6.8201552328       -0.9122931116       -2.8226927949
 C        -9.1181416022       -2.9422731368       -1.9771333193
 C       -10.5959669928       -1.0774966403       -2.8262819633
 C       -14.7580127114       -0.6882036817       -0.2620225210
 C       -14.5665581726        1.9001840597       -0.0347041090
 C       -11.2643184695        0.2201454970        4.5252120038
 C       -12.9614614826        0.5823408216        6.3396511006
 C        -6.4475756668        4.7459754135        3.0134930980
 C        -8.3638367743        6.4009185675        2.7034474966
 C        -9.9880513498        5.6449106063       -3.9300670542
 C        -8.1853642504        3.7820984507       -4.4534369541
 C        -6.4908708589       10.9931645131       -4.7619253459
 C        -4.0669098774       10.5168625950       -4.4476761301
 H        -3.6484649818       11.1791992666       -1.5830543333
 H        -4.7784910903        9.9938720112       -1.1004559175
 H        -4.9415658722       11.5606961494       -0.4394128452
 H        -5.2274746759        7.9667808989       -5.1724248160
 H        -6.7535225349        8.6753786659       -5.0320895958
 H        -5.9488306229        5.6649576864       -4.2810035927
 H        -7.2702095854        6.2264595700       -5.3301295470
 H        -7.1136071435        4.5987561249       -1.1107447274
 H        -7.9256132800        2.9813838484       -0.9467168205
 H        -9.7357679102        4.2038768745        0.2586618675
 H        -8.7783223255        5.7938529805        0.4509891652
 H       -10.5191380739        4.0651572019        3.5113002988
 H       -10.4708687989        5.2779885862        4.8093401519
 H        -9.7148902487        3.0739350533        6.4133305726
 H        -9.7483770998        2.2496986780        5.0039615073
 H       -14.6708253320        3.1058138255        3.9777128317
 H       -15.1777984850        1.9378092828        4.9163386552
 H       -16.0649194407        2.1408481373        2.1292537031
 H       -16.4323936200        0.9418129636        3.4031283985
 H       -12.6771277422       -1.2297941267        1.6289589464
 H       -11.1522380655       -0.1989511342        1.9090745317
 H       -11.7902863458       -2.4299303189       -0.0680915894
 H       -10.5685115609       -2.3699602359        1.1487462757
 H        -6.7861498005       -1.3976986063       -3.7603805556
 H        -6.4918161526       -1.6653331382       -2.0690734522
 H        -6.1035515913       -0.1082567980       -2.6209039916
 H       -10.0168460081       -3.5727323793       -1.9908126855
 H        -8.5203932065       -3.1819975697       -1.0958611579
 H        -8.5756955685       -3.0622118731       -2.8707629926
 H       -11.5030374536       -1.7004979213       -2.9011742078
 H       -10.2024405845       -1.0106996612       -3.8350139444
 H       -10.9563759336       -0.1366239005       -2.5837722228
 H       -14.7190478632       -1.5650812107        0.4128617397
 H       -14.2300310988       -0.6578410524       -1.3027701544
 H       -15.7976937474       -0.3538833265       -0.6027120666
 H       -14.3266718735        2.1589191370       -1.0503504751
 H       -14.2200767673        2.7464935187        0.4936722180
 H       -15.6419486412        2.0964923463        0.0363984962
 H       -10.5610209230        0.0907566572        5.3140346033
 H       -10.7621876027        0.6760475478        3.6700955058
 H       -11.7670660227       -0.7502730405        4.2316473511
 H       -12.2736522061        0.2069460931        7.0259552368
 H       -13.3752593721       -0.4247902381        6.1174332189
 H       -13.7485405724        1.2735270311        6.8280786812
 H        -6.0694858236        3.7931965720        3.3092985669
 H        -6.1014251175        5.4207183221        3.8086518702
 H        -5.9787991369        5.1013754592        2.0577669143
 H        -8.0590843020        6.8765768103        3.6789313946
 H        -9.4973757997        6.5201808983        2.4187883092
 H        -7.8480280508        6.7973257498        1.8502388655
 H        -9.9442873969        6.0913119381       -4.8695953891
 H       -10.2602690645        6.4154888086       -3.2443715116
 H       -10.8760654861        4.9954452899       -3.7663347728
 H        -7.9120492986        4.1839205721       -5.4811597895
 H        -9.0546787191        3.0784596603       -4.6705153458
 H        -7.4504351479        3.2104510912       -3.9502751634
 H        -6.7762801450       10.3747633523       -5.6385399344
 H        -5.9878004528       11.9139514038       -5.1720267851
 H        -7.4051392950       11.3509178378       -4.2802288998
 H        -3.9589330405        9.8423465088       -5.2867374444
 H        -3.2483296606       10.2456895794       -3.8093720921
 H        -4.0314955243       11.5818383601       -4.7236796308
 Na       -9.9476724626        1.9200463215       -0.6589352983
