117

 C       -11.8746145932        0.0483603013        8.6547089319
 C       -10.4246593010       -0.1356570500        8.1939694524
 O        -9.7096570384        0.7724183206        7.8483061175
 C        -9.7666330021       -1.5522157007        8.0971705840
 C        -9.3911495989       -1.7836586321        6.5920096401
 O        -9.9371055133       -2.7179515910        6.0012070275
 C        -8.2889305446       -0.9992573134        5.8630682208
 C        -8.1838042036       -1.3073702739        4.4083124805
 C        -6.7591609231       -0.9238012717        3.9340335008
 O        -5.7921416573       -1.0341984604        4.6725752430
 C        -6.7311981716       -0.2799367614        2.4882096184
 C        -7.1554296502        1.2090596844        2.6900715952
 O        -7.7468925294        1.5434117140        3.7180889749
 C        -6.7578806908        2.2700619904        1.5409654763
 C        -7.0602122024        3.7150858014        1.8882329191
 C        -8.2819101588        4.4145838760        1.0970398614
 O        -8.1206754761        4.7177921933       -0.0269643012
 C        -9.6432343013        5.1096704740        1.9558260930
 C       -11.0614403542        5.0322307005        1.0689067532
 O       -11.2698408374        5.8629926456        0.2302082288
 C       -12.1976450712        3.8587254220        1.2099321755
 C       -12.7237120096        3.4921300535       -0.1809982868
 C       -11.6603901055        3.4349908062       -1.2239879153
 O       -10.4523988478        3.4842922696       -0.9148033295
 C       -12.0508308590        2.9923114594       -2.6225648519
 C       -10.8272567187        3.2710023380       -3.5436334451
 O        -9.9950093346        4.0748392781       -3.2359530049
 C       -10.6613065198        2.4503272555       -4.9433828549
 C       -10.4291006019        3.5167470576       -6.0181967258
 C       -11.5463403338        4.5305568890       -6.3634495477
 O       -12.7096357845        4.4127116115       -6.0155897270
 C       -11.1201663085        5.7874430174       -7.2714757745
 C       -10.7162557348        6.9298395161       -6.1813787341
 O        -9.5558095054        7.0849527256       -5.8361283219
 C       -11.9116436410        7.7588029592       -5.6971336455
 C       -11.5760707534        8.8383002100       -4.6638828298
 C       -10.7205391779        8.3434519385       -3.4141814608
 O       -10.8693571681        7.2329705475       -2.9695745179
 C        -9.6391135228        9.2456721422       -2.6070597362
 C        -8.2550703121        8.4841513099       -2.3889411453
 O        -8.1816241865        7.5911765938       -1.5804508623
 C        -7.1004753588        8.8468819262       -3.3192770305
 C        -9.4093083616       10.6081382661       -3.2824211245
 C       -10.2749692054        9.3099589998       -1.1590224367
 C        -9.9283604342        5.4890066704       -8.0469779401
 C       -12.2457669832        6.2510395988       -8.2104719050
 C       -12.1148707317        1.4473090078       -2.6985038958
 C       -13.3472794755        3.6531873716       -3.0534224994
 C        -9.7429598059        4.3952498540        3.3396342246
 C        -9.2676317478        6.5757466445        1.9980022467
 C        -5.3986944471       -0.4337756905        1.8124490485
 C        -7.7828328785       -0.6934568091        1.4317993206
 C        -8.4909679755       -1.4690874490        8.9251187318
 C       -10.6131003675       -2.7397883815        8.6817201669
 H       -11.8883095574        0.3461323105        9.6830250353
 H       -12.5737433858       -0.8585670797        8.5513619969
 H       -12.2593548753        0.8269760224        7.9915842900
 H        -7.3389478684       -1.3995052245        6.3557370725
 H        -8.2061558572        0.0743864861        6.1861739004
 H        -8.8633626716       -0.7156415791        3.8457955063
 H        -8.3369446356       -2.3739209151        4.3756690601
 H        -7.3538566373        1.9778649329        0.6945117174
 H        -5.7212574759        2.1092812283        1.2492799285
 H        -6.1433372329        4.2596698635        1.5292012159
 H        -7.0970738106        3.8278385736        2.9635306481
 H       -13.0118631651        4.1391419383        1.9085100169
 H       -11.7628314888        2.9167337440        1.7773556963
 H       -13.6555243315        4.1420956053       -0.4010711866
 H       -13.1078607284        2.4624244214       -0.1591657277
 H       -11.4934441439        1.7982009403       -5.2110722816
 H        -9.7844412368        1.8719806820       -4.9822120344
 H       -10.5090736923        2.8271933524       -6.8644792751
 H        -9.4570608380        3.9887008732       -5.9437349256
 H       -12.6624843051        7.0921982138       -5.3390554324
 H       -12.3783175616        8.2218314925       -6.5437136915
 H       -12.4906636141        9.2372971050       -4.2056836723
 H       -10.9794826671        9.6461341946       -5.1648625628
 H        -7.3369034493        8.7888597905       -4.3210114687
 H        -6.2285842330        8.2849351606       -3.0556842106
 H        -6.9141731231        9.8636307582       -3.1033090905
 H       -10.0462094270       11.3914401352       -2.8448261618
 H        -9.5285915809       10.6454278012       -4.3637728503
 H        -8.4651935454       10.9343647550       -2.9821468861
 H       -10.3279614191       10.3882087012       -0.8250608267
 H        -9.5475796549        8.7492380654       -0.5226970047
 H       -11.2804722646        8.9242542455       -1.2265888640
 H        -9.9989611049        4.6821922417       -8.7850982769
 H        -9.0470924340        5.3283321561       -7.4205848832
 H        -9.6697245943        6.2864339846       -8.6942798028
 H       -12.3073716039        5.6189837905       -9.1510639683
 H       -12.0925867300        7.3119283061       -8.4651164303
 H       -13.1669131733        6.3189793529       -7.6112282744
 H       -12.8621914837        1.2147674436       -1.9662802558
 H       -11.1817948419        0.9495634093       -2.5282322932
 H       -12.5218479115        1.1737730415       -3.6634970993
 H       -13.2103455872        4.7204295988       -2.8203051769
 H       -14.1230820193        3.2041389069       -2.3881624232
 H       -13.4994832645        3.4714182245       -4.1242706058
 H       -10.2648317546        3.4168272217        3.2453907744
 H       -10.2312211273        5.0051661087        4.1392884957
 H        -8.7815257502        4.1388895141        3.6664338309
 H        -9.3522521098        7.0218033291        0.9978186551
 H        -8.3106781588        6.8212819871        2.4099106104
 H        -9.9507205256        7.1563252060        2.6248864469
 H        -5.2280549463       -1.4558574042        1.5192028794
 H        -4.5024113012       -0.1813166573        2.4305246806
 H        -5.3542909826        0.2471165603        0.9251121072
 H        -8.7829432169       -0.1578902469        1.4593627985
 H        -8.0042757659       -1.7547035711        1.3739543185
 H        -7.3792493703       -0.4306441579        0.4070490995
 H        -7.9575896513       -0.5520174423        8.6210839586
 H        -7.8012228166       -2.3353626866        8.7619019788
 H        -8.7877272310       -1.3765014074        9.9816801626
 H       -11.5963194439       -2.9282852981        8.1754667448
 H       -10.9719451259       -2.6443026971        9.7445903765
 H       -10.0593934039       -3.6718082219        8.5099570546
 Na       -9.7097715743        5.7662438216       -1.6069606348
