117

 C        -4.6136503516       11.2899314965       -1.7125565873
 C        -5.4528475285       11.3529046873       -3.0393256435
 O        -6.1409942141       12.2992285245       -3.2452807258
 C        -5.2429659017       10.2846361366       -4.0955088374
 C        -5.6299787661        8.8121778135       -3.7128466251
 O        -5.3880679227        8.4623159716       -2.5712183543
 C        -6.3963184990        7.8263801800       -4.7059576108
 C        -6.3669688597        6.3495794963       -4.1051222490
 C        -7.4405040367        6.0100275239       -3.1037713012
 O        -7.4711093997        6.5136848983       -1.9999795047
 C        -8.5668941289        4.9075063137       -3.5194231255
 C        -9.1361695454        4.1747404740       -2.2518371648
 O       -10.2936345337        3.8750910167       -1.8864086855
 C        -8.0906502147        4.0579320352       -1.1184646944
 C        -8.6086640042        4.8676010379        0.0774143999
 C        -8.5445622461        4.0908170038        1.5599454922
 O        -8.7390406176        2.8700838542        1.6353309979
 C        -7.9244743796        4.8685760895        2.7255124918
 C        -8.5988238493        4.4181761950        4.1315382093
 O        -7.9603240196        4.4522391787        5.1107766914
 C        -9.9888797098        3.9872962640        4.2016060584
 C       -10.3488943143        3.2698893217        5.5960852445
 C       -11.8051962717        2.8696780331        5.7787602088
 O       -12.5373365217        3.6652078472        6.2487223381
 C       -12.2274926948        1.3346249365        5.2062402754
 C       -13.1833323393        1.7003055986        4.1433352265
 O       -12.8341718673        2.5124332574        3.2451744627
 C       -14.7162977106        1.5145158674        4.2656793249
 C       -15.4540284973        1.6193918619        2.9518964008
 C       -14.8962407360        0.3234455148        2.1872552835
 O       -14.7257279626       -0.7223973747        2.7727493994
 C       -14.3450142350        0.4695571217        0.6123136044
 C       -12.7980623326        0.3007310083        0.4571385334
 O       -12.1428464977        1.0265392613       -0.2178130866
 C       -12.1783527893       -0.8943019291        1.1002256203
 C       -11.3641282313       -1.6131367736       -0.0156968421
 C       -10.0645945785       -0.8762756160       -0.2860043611
 O        -9.3842288872       -0.2803433578        0.5642343344
 C        -9.4860160621       -1.2682285830       -1.7433816925
 C        -8.1387706860       -0.4399996639       -1.9597262039
 O        -8.2602206528        0.7433527100       -2.0364687067
 C        -6.8202073187       -1.1471177812       -1.8346170594
 C        -9.0087661920       -2.7432689957       -1.7150465503
 C       -10.5757236549       -0.8598966826       -2.8736160929
 C       -15.2012919032       -0.6809458299       -0.1232556694
 C       -14.7165275026        1.8433715046        0.1076181897
 C       -11.0299112330        0.4438064055        4.7448305585
 C       -12.9988972187        0.6776124830        6.3086538678
 C        -6.3747407508        4.8984469753        2.7347918897
 C        -8.4048007979        6.3802425355        2.7027472721
 C        -9.6955930159        5.6038417292       -4.2755880640
 C        -7.8194040449        3.7740772447       -4.1488842375
 C        -5.9775490767       10.8601213414       -5.2868819412
 C        -3.6517205977       10.2490257862       -4.4487309855
 H        -4.6987762293       10.3095134606       -1.2099116388
 H        -4.8313557899       12.1100329775       -0.9097213447
 H        -3.6034334832       11.6397511133       -1.9553351459
 H        -6.0055397237        7.8618379482       -5.6858599018
 H        -7.4138778648        8.3496746669       -4.7093031889
 H        -5.4731385735        6.2242979451       -3.5965993496
 H        -6.4917051207        5.5216406795       -4.8501711570
 H        -7.0576026368        4.3437437193       -1.3042911017
 H        -8.0534454829        3.0816982487       -0.6676449364
 H        -9.5944151536        5.2167092357       -0.0311811061
 H        -7.8554761785        5.6406370974        0.2356130864
 H       -10.2588562822        3.4798150357        3.2774406566
 H       -10.8003763143        4.8066961675        4.2357288939
 H       -10.1873860737        3.9768335126        6.4592915869
 H        -9.6596467114        2.5139532821        5.8214813710
 H       -15.1078117393        2.3335235916        4.8734081496
 H       -15.1515969666        0.6525566381        4.8094610744
 H       -15.1796175097        2.5026963868        2.3392351755
 H       -16.5001119798        1.4100644233        2.9276307599
 H       -12.8821218858       -1.6644446916        1.5911570936
 H       -11.3612931339       -0.4934273524        1.7105877190
 H       -11.9602272503       -1.7267369191       -0.9414740891
 H       -11.2219430263       -2.7080404101        0.3362982432
 H        -7.0059679386       -1.9969952492       -2.5270644191
 H        -6.6461747292       -1.5177971767       -0.8641504831
 H        -5.9157792452       -0.5402409536       -1.9411985023
 H        -9.8754764089       -3.3119039216       -1.3908026040
 H        -8.3314239279       -2.8042046299       -0.8598613644
 H        -8.6588176703       -3.1172302454       -2.6876469382
 H       -11.5810894541       -1.2453865721       -2.5653532196
 H       -10.3660703675       -1.2835415338       -3.9265621581
 H       -10.6554750791        0.1539035472       -3.0234934086
 H       -14.7047079499       -0.8190155117       -1.0279255554
 H       -16.2183625854       -0.2917276298       -0.1147564404
 H       -14.9795570469       -1.6530721594        0.2986377073
 H       -14.5877184837        1.9449825211       -0.9426088270
 H       -14.2327203763        2.7426564100        0.5071782935
 H       -15.7163277682        2.1746776175        0.2925320166
 H       -10.5517256986        0.2590063130        5.6234719284
 H       -10.4440242556        0.7248098251        3.8699238629
 H       -11.5627138274       -0.5211907743        4.3149765403
 H       -12.4311451422        0.2119092946        7.0496029901
 H       -13.3621974130       -0.2407641842        5.9239374152
 H       -13.6278859687        1.3904892907        6.8833877904
 H        -6.0558383605        4.1129924279        2.1175264199
 H        -5.9698749557        4.6734266594        3.7623001724
 H        -5.9030171035        5.7432619921        2.2481019999
 H        -8.3989563008        6.7309363651        3.7520747901
 H        -9.4577773362        6.5115112066        2.2550658846
 H        -7.6116929314        6.8449103223        2.1673160141
 H        -9.2814612068        6.1348723223       -5.1457364722
 H       -10.1253229552        6.2913601243       -3.4962155671
 H       -10.6189027763        5.0904275369       -4.4439213233
 H        -8.1556791728        3.7289961420       -5.1672751340
 H        -8.0595314955        2.7908389323       -3.8165611988
 H        -6.7854070443        3.9275526155       -3.9840809358
 H        -5.9092226163       10.1982506399       -6.0985846879
 H        -5.5079027452       11.7670690875       -5.7354437307
 H        -7.0014350082       10.9241819057       -5.0627300747
 H        -3.6000259658        9.2934436705       -4.8774788194
 H        -2.9382618771       10.3353218871       -3.6230520765
 H        -3.3241158049       11.0743194556       -5.1329098296
 Na       -9.8471390705        1.8466520773       -0.2420325995
