117

 C        -4.6070828121       11.1165390428       -2.0299882346
 C        -5.4097531338       11.1966745763       -3.2849797739
 O        -6.2541121891       12.0602324055       -3.5374740882
 C        -5.0326971208       10.0983315402       -4.4417455580
 C        -5.5713324007        8.8967050973       -3.7596604299
 O        -5.2453364311        8.6270450094       -2.6281195622
 C        -6.6440659364        7.9761035338       -4.4453159541
 C        -6.4334982595        6.4878361903       -4.1922831216
 C        -7.4765752822        6.0016360141       -3.0797215858
 O        -7.6654856765        6.7241435181       -2.1169664963
 C        -8.2666760902        4.8838417289       -3.4691002268
 C        -8.8281402047        4.1724591626       -2.1517418934
 O        -9.9767254977        3.7718669681       -2.1155002219
 C        -7.9306341876        4.0430178963       -1.0056107047
 C        -8.2490927968        5.0785952060        0.1962004852
 C        -8.5976364346        4.3064497369        1.4477694203
 O        -9.1762056472        3.2393746365        1.4906531585
 C        -8.0713166586        4.9587191917        2.7253621759
 C        -8.5215163801        4.3549423881        4.0836515998
 O        -7.7079477834        4.2818598928        5.0375265000
 C        -9.7779856252        3.5850858434        4.1926867551
 C       -10.2615912217        3.4193664921        5.6658141223
 C       -11.7516639719        2.9655060675        5.9469999745
 O       -12.4967097304        3.6621121542        6.6238030696
 C       -12.2731383651        1.6515696616        5.3980664715
 C       -13.3015353504        1.9071690384        4.2538942841
 O       -12.9043422333        2.3958541367        3.2393324903
 C       -14.6827031644        1.5135471890        4.4351284311
 C       -15.4368664062        1.5471243223        3.0920097784
 C       -14.9448693182        0.3518683948        2.0922248467
 O       -14.7401164610       -0.7797321056        2.4384368487
 C       -14.5673867579        0.5099925948        0.5520087237
 C       -13.0227123270        0.2638930311        0.5424220658
 O       -12.2943407252        1.1629597146        0.0596617747
 C       -12.4626541469       -1.1126864859        1.0773219637
 C       -11.5448999129       -1.8341971903        0.0667595279
 C       -10.2022662546       -1.0189392901       -0.2572355920
 O        -9.6397823915       -0.4001226902        0.6131380402
 C        -9.3870154821       -1.2210467930       -1.6347410246
 C        -8.1259858324       -0.2530274027       -1.5597590108
 O        -8.2322353145        0.9915018945       -1.6968230131
 C        -6.7662309367       -1.0312519656       -1.4116056729
 C        -9.2911539521       -2.8097240052       -1.7278280348
 C       -10.2486188996       -0.8393460744       -2.8547053030
 C       -15.2930800316       -0.7205321025       -0.2119921367
 C       -14.8920944566        1.8269231687       -0.1089707156
 C       -11.1185948570        0.7626173216        4.8083597889
 C       -12.7710389279        0.8792094805        6.6337726501
 C        -6.4701168841        4.7457291305        2.7170893690
 C        -8.4991366310        6.4853641886        2.7669208663
 C        -9.4130364980        5.3487986118       -4.3435474283
 C        -7.6377488241        3.6790436676       -4.3753851976
 C        -5.6260412429       10.3734522319       -5.8423238879
 C        -3.5347488083        9.9191070151       -4.6307425636
 H        -5.2803963419       11.0845113235       -1.1879329845
 H        -4.0560849368       11.9795303911       -1.9022621637
 H        -3.7800181725       10.3496373104       -2.0306555011
 H        -6.6679236079        8.1072183517       -5.5741166312
 H        -7.5614594017        8.2975616296       -4.0533245536
 H        -5.3863645922        6.3449875651       -3.6575511578
 H        -6.4658372233        5.9683055001       -5.1606569006
 H        -6.8398324548        4.1579955742       -1.2868899846
 H        -8.0096504287        3.0412786637       -0.5643157798
 H        -9.2415993460        5.5802208579        0.0572601555
 H        -7.3998631311        5.7422063202        0.3697436827
 H        -9.6190968571        2.6460988683        3.6669804729
 H       -10.6489860614        3.8666043898        3.6341557675
 H       -10.3106124605        4.3161592664        6.2572344117
 H        -9.4171744263        2.7940686762        6.1787751505
 H       -15.2581768952        2.1946692901        5.0773359213
 H       -14.7561212999        0.5465865685        4.9343716936
 H       -15.1784958965        2.4176503384        2.5509982514
 H       -16.5379860177        1.3610564711        3.0691112394
 H       -13.2513073629       -1.7727344897        1.3071471053
 H       -11.8169182657       -0.8590184885        1.9216795447
 H       -12.1314992730       -2.1987048567       -0.7412744185
 H       -11.2308906466       -2.7243170071        0.5557727660
 H        -6.6279454274       -1.9711077876       -1.9659051533
 H        -6.6400538557       -1.2113913654       -0.3228199239
 H        -5.9467933217       -0.3405467123       -1.5446158458
 H       -10.3088951753       -3.0852204388       -1.9615105164
 H        -8.9703311847       -3.2708850671       -0.8188655602
 H        -8.6389760114       -3.0341114055       -2.5515883490
 H       -10.9487524919       -1.5814940652       -3.0609883404
 H        -9.6927771683       -0.6381688022       -3.7289552936
 H       -10.7440294805        0.1633692725       -2.7252669906
 H       -16.0326464069       -0.3171219584       -0.9746233426
 H       -15.7794022013       -1.2101847613        0.5753721335
 H       -14.5822102565       -1.1459078123       -0.9494688105
 H       -14.6404622206        1.7666186515       -1.1442876388
 H       -14.4302136610        2.7556391415        0.2582655654
 H       -15.8842131228        2.1740401776       -0.1162490834
 H       -10.3529723866        0.7405292419        5.6257155634
 H       -10.7779308799        1.1539804501        3.8668046615
 H       -11.4944555283       -0.1680691542        4.5409226619
 H       -12.1077919919        1.0286913403        7.5549256281
 H       -12.7400757069       -0.2273402020        6.4983321913
 H       -13.5994384867        1.3317648166        7.0817810031
 H        -6.1245531197        3.7099701846        2.4708618078
 H        -6.0289080860        5.1616859485        3.5814041102
 H        -6.0663802611        5.2892095618        1.8744062170
 H        -8.6250588916        6.8193221152        3.7916839626
 H        -9.5110896940        6.3835500648        2.3976117884
 H        -7.7736305537        7.1368529651        2.1611160679
 H        -9.0009418999        5.9547574555       -5.1079479503
 H       -10.1449289308        5.8463362918       -3.7594964874
 H        -9.9585706531        4.5323239568       -4.7632529396
 H        -7.2809155231        4.0121432950       -5.3386982282
 H        -8.4592223537        3.0214256455       -4.6152143649
 H        -6.9023893942        3.1692475752       -3.7065035096
 H        -5.0211767772       10.1140587087       -6.7305805001
 H        -5.7917326614       11.4033820718       -5.9930095527
 H        -6.5895603197        9.8348574336       -5.9383065149
 H        -3.2429931128        9.7042475098       -5.6343414376
 H        -3.2237250301        9.2473076158       -3.8479469616
 H        -3.0001269651       10.6956855845       -4.1718898192
 Na      -10.1508851127        2.0135355018       -0.2314869846
