117

 C        -4.6266197047       11.2235763802       -2.1725759891
 C        -5.3117300494       11.2230930796       -3.5272018101
 O        -6.2799170929       11.8987662272       -3.7246264979
 C        -4.9345778366       10.0551341444       -4.5244237527
 C        -5.5211905611        8.8630537006       -3.8091322556
 O        -5.1173127907        8.6380179027       -2.6829799715
 C        -6.6841797253        8.0448706290       -4.4888726188
 C        -6.4777160151        6.5549705290       -4.2294476046
 C        -7.3944134388        6.0646097254       -3.0864201369
 O        -7.7152700872        6.7922849660       -2.1787378948
 C        -8.2971492302        4.6249633850       -3.5469650382
 C        -8.7731371939        3.9741514368       -2.1694762471
 O        -9.9129806363        3.5015222681       -2.0512944029
 C        -7.7377924973        4.0196061488       -1.0109015545
 C        -8.1694437641        5.0940269533        0.0986790676
 C        -8.6671210916        4.4062632375        1.4209222127
 O        -9.3738663007        3.3831310438        1.4422801376
 C        -8.0945578359        4.9902542930        2.7538847844
 C        -8.4310275731        4.1667489971        4.1281956167
 O        -7.6211378198        4.2517774354        5.0147209022
 C        -9.7570656111        3.4858255246        4.3218046280
 C       -10.2787684738        3.5891023428        5.7463311350
 C       -11.7759119559        3.1792196201        5.9765329201
 O       -12.4114664961        3.7654747172        6.8183809512
 C       -12.1863279780        1.6769131594        5.4594216510
 C       -13.2734448724        1.8335616133        4.3530421732
 O       -12.8391347565        2.3189251616        3.3039641240
 C       -14.7761794950        1.5334918497        4.4645886097
 C       -15.3879272435        1.4500961577        3.0121980905
 C       -14.9086956630        0.2480333738        2.0852465315
 O       -14.9079240512       -0.8499619484        2.5560558162
 C       -14.6067645682        0.5031828472        0.5014252573
 C       -13.0756323034        0.3059080463        0.4198408663
 O       -12.2937710626        1.1934753357        0.2175085165
 C       -12.4707788404       -1.0809446718        0.9213415964
 C       -11.5215062643       -1.7831012420        0.0344019124
 C       -10.2778133745       -1.0668158102       -0.0521062957
 O        -9.8755793159       -0.2802829266        0.6738554339
 C        -9.4541309051       -1.2939536597       -1.5646600747
 C        -8.2297929415       -0.3849553072       -1.3730989822
 O        -8.4279639001        0.8061838922       -1.4109360435
 C        -6.7963945394       -0.8626618063       -1.2409045288
 C        -9.1800859236       -2.7984177598       -1.8158360284
 C       -10.1144411703       -0.6349911227       -2.8422547892
 C       -15.3275508977       -0.6602202292       -0.3250711205
 C       -15.0413248170        1.8487595062       -0.0943569385
 C       -11.0888424825        0.7035749462        4.7368658556
 C       -12.8292767148        0.9703399427        6.7308731779
 C        -6.4812877043        4.8869369859        2.7392856924
 C        -8.4191998561        6.4933436167        2.8550971396
 C        -9.4886144215        5.2124426577       -4.4055960172
 C        -7.4950846458        3.6275755572       -4.3139963165
 C        -5.5903901412       10.3847213639       -5.9893921105
 C        -3.3292173040        9.7583914800       -4.6281111043
 H        -5.2516805321       11.6008776940       -1.4400852939
 H        -3.8814727300       11.9931587168       -2.2865615205
 H        -3.9689211524       10.4245171474       -1.8933933535
 H        -6.7906110619        8.2467728697       -5.5821527102
 H        -7.5605067416        8.3893459667       -3.9794513776
 H        -5.4468172459        6.2767750171       -4.0172784581
 H        -6.8155310559        6.0279046719       -5.1335582684
 H        -6.6866462305        4.4323677037       -1.3596326470
 H        -7.5248434540        3.0348350704       -0.6276252558
 H        -8.9503485796        5.7304719697       -0.4150496587
 H        -7.2453116393        5.6986875777        0.3898747949
 H        -9.8441758049        2.5389749278        3.9532186517
 H       -10.6069123464        3.9049608245        3.6591372014
 H       -10.1914387107        4.4848657401        6.3153438024
 H        -9.6348157120        2.8258335892        6.2584818716
 H       -15.3509405864        2.3737188005        4.7744639148
 H       -15.0876029642        0.6851141665        5.1464908059
 H       -15.1656176037        2.3673650124        2.4392849199
 H       -16.4832356339        1.2588021887        3.0112195257
 H       -13.2838839847       -1.8302291836        1.1906314324
 H       -11.9076930833       -0.8089521936        1.7654427364
 H       -11.9326972345       -1.9919865435       -0.8585074431
 H       -11.2677143888       -2.8176738417        0.4421736901
 H        -6.4625514795       -1.7320345436       -1.9691908740
 H        -6.5524698746       -1.1603050356       -0.2688930574
 H        -6.1962758428        0.0665341174       -1.3768045674
 H       -10.0825154138       -3.2906206041       -2.1265761403
 H        -8.6673025054       -3.2481269592       -0.9755275656
 H        -8.4365993889       -2.7254407581       -2.6450741246
 H       -10.9039234012       -1.2654608379       -3.2360156864
 H        -9.3756678650       -0.4808393787       -3.7089819543
 H       -10.3984465876        0.3585778539       -2.7000865157
 H       -16.4384041210       -0.5062355138       -0.3944903796
 H       -15.2358690015       -1.4432553415        0.3578300188
 H       -15.0119168355       -0.5582976745       -1.3857634503
 H       -14.7121220598        1.9778432346       -1.1202116450
 H       -14.7655161985        2.8384047241        0.4128241198
 H       -16.1063466239        2.0413743024       -0.1979727304
 H       -10.1592770725        0.7919524749        5.1244628134
 H       -11.1586925348        0.8329751602        3.6554339444
 H       -11.5406493506       -0.3715968607        4.8557552413
 H       -12.1931366115        1.0946568452        7.6198750344
 H       -13.1323673712       -0.0948903887        6.7301446437
 H       -13.5395615023        1.6892446292        7.1254074326
 H        -6.0848457733        3.8918807379        2.8920606642
 H        -6.0067413447        5.6903613590        3.3903451749
 H        -6.1003001294        5.1138935780        1.7494819594
 H        -8.0954384276        6.8514441315        3.7693975489
 H        -9.4842505070        6.4875097376        2.9078577260
 H        -7.9639617173        7.0202082845        2.1050882170
 H        -9.0133752130        5.7252410394       -5.2658617178
 H        -9.9723318672        6.0001767103       -3.7239350177
 H       -10.2195105327        4.5672944317       -4.7753031577
 H        -6.8073374429        4.1901278183       -4.9801817913
 H        -8.1396542513        3.0808631891       -4.9979255379
 H        -6.9395642277        2.9638846406       -3.5841978855
 H        -5.1211335382        9.9577422752       -6.8526074799
 H        -5.4030445728       11.5026546763       -6.1487808324
 H        -6.6821686444       10.2126920161       -6.0654329927
 H        -2.9677551350        9.7056229038       -5.6477308377
 H        -3.0622313842        8.9758691604       -3.8639081192
 H        -2.7625002407       10.4933293371       -3.9386164560
 Na      -10.2651866792        2.0825011252       -0.3824764530
