117

 C        -4.2198370311       12.1805303062       -3.2523803697
 C        -5.1507150924       11.3916906371       -4.1491480893
 O        -6.3123130980       11.5517865819       -4.3083116181
 C        -4.5732908772       10.0207724531       -4.8017586362
 C        -5.2302558071        8.6539793717       -4.1785195902
 O        -4.4703056927        7.9107792661       -3.5615926180
 C        -6.7165622804        8.2266444613       -4.5752646308
 C        -6.9904830984        6.6585460606       -4.7474551056
 C        -7.6668889303        5.9558472527       -3.5260271065
 O        -8.0433020258        6.6445392079       -2.5612884597
 C        -8.1593711291        4.4315006562       -3.5512502836
 C        -8.5198792832        3.6349898513       -2.1308593272
 O        -9.5258707676        2.9448148387       -2.0470020703
 C        -7.5925352203        4.1188804754       -0.9848319261
 C        -8.2764924150        5.1830692808        0.0875728471
 C        -8.7418688836        4.5301957759        1.3639081056
 O        -9.5714243523        3.6206015340        1.3669649207
 C        -8.0030059619        5.1099490719        2.7661441443
 C        -8.4747865990        4.2084407918        3.9514970127
 O        -7.7160775306        3.6830338070        4.6752491842
 C        -9.8941391231        3.7783546837        4.2523250632
 C       -10.1976476023        3.4778851545        5.7539605772
 C       -11.6959849997        3.0440480670        6.0289474635
 O       -12.3460444006        3.8904011403        6.5886120913
 C       -12.3084972694        1.6231391154        5.7785316976
 C       -13.0747386344        1.8849141640        4.4577373118
 O       -12.5698302610        2.3025474455        3.3831266895
 C       -14.5142719631        1.2673279707        4.4504018415
 C       -15.2878400613        1.6218200662        3.1426717328
 C       -15.2265399398        0.3372851572        2.1643308516
 O       -15.4576999833       -0.7867191262        2.6134041511
 C       -14.8869167512        0.5010591874        0.6492638881
 C       -13.3660895033        0.3062603467        0.5443067936
 O       -12.6033660769        1.0732229240       -0.0052694629
 C       -12.8891467091       -1.1243986888        0.8369921526
 C       -11.8279684408       -1.5903009247       -0.1915871722
 C       -10.4750376462       -0.7471250366       -0.0648487264
 O       -10.3219459079       -0.1822141632        0.9554338862
 C        -9.3940086006       -0.9712670608       -1.2817061120
 C        -8.1041852678       -0.2370842138       -0.7620386722
 O        -8.3176013329        0.8597339489       -0.2721990629
 C        -6.7971500200       -0.8625355166       -0.8166164855
 C        -9.0752290505       -2.4912876575       -1.4879478697
 C        -9.8193716419       -0.2975863835       -2.6565068126
 C       -15.8614693040       -0.5711429311       -0.0498142657
 C       -15.2964586418        1.8326078791        0.1291204769
 C       -11.1379476363        0.6571188172        5.6754368950
 C       -13.1818580654        1.3064978704        6.9893918359
 C        -6.4565693356        5.0343156491        2.7159111261
 C        -8.4816127581        6.5511832565        2.8850102813
 C        -9.2553261080        4.2947212472       -4.6642580568
 C        -6.9779892274        3.5997108705       -4.2618294280
 C        -4.7307627827       10.0355148651       -6.2350624554
 C        -3.0532926750        9.9374540018       -4.3218729150
 H        -4.5445323399       13.2080093343       -3.1847536352
 H        -3.2167969263       12.3511162256       -3.7443037238
 H        -4.0262059543       11.8965979095       -2.2733204596
 H        -6.9431156051        8.7309425746       -5.5120220317
 H        -7.3709668616        8.6032342212       -3.7862388729
 H        -5.9905870582        6.2595624363       -4.9703838419
 H        -7.6349524058        6.5368301842       -5.7052615878
 H        -6.6335648193        4.5693029935       -1.4032026522
 H        -7.2359859838        3.2949164269       -0.3109475380
 H        -9.1508944453        5.6181114119       -0.4164327696
 H        -7.4811135814        5.9778307303        0.3041983953
 H       -10.0936402781        2.9767936957        3.6130762809
 H       -10.7576157779        4.4933047874        3.9503329547
 H       -10.1236896305        4.4259498379        6.2758573296
 H        -9.5034373565        2.6988903331        6.1135978725
 H       -15.1361316840        1.5526587642        5.2869526472
 H       -14.3620550883        0.1546341697        4.3587777639
 H       -14.9570340684        2.5537689638        2.6067400491
 H       -16.3525933605        1.7264206658        3.3170165963
 H       -13.8067787970       -1.7821432886        0.8682985209
 H       -12.5091342896       -1.2126688185        1.7927262968
 H       -12.2084091595       -1.5486154533       -1.1625764112
 H       -11.6668135558       -2.6330245980        0.0467760111
 H        -6.6764312767       -1.0794762767       -1.9195256524
 H        -6.8256898966       -1.8050564741       -0.3320447176
 H        -5.9561101337       -0.2039636478       -0.5020400475
 H        -9.9002249966       -2.9364073827       -1.9569838075
 H        -8.8588968623       -2.8835016995       -0.5177443946
 H        -8.1725265176       -2.5746807482       -2.0947756637
 H       -10.5661697107       -0.9767215009       -3.0621993951
 H        -9.0968290548       -0.1799052056       -3.4907003992
 H       -10.3033263692        0.5903043655       -2.5068854888
 H       -15.2274906771       -1.3960737368       -0.4082252852
 H       -16.3979668266       -0.0796294808       -0.9663341514
 H       -16.6564948316       -0.7738583102        0.6451653936
 H       -15.4813934240        1.8361575684       -0.9364383994
 H       -14.6345654275        2.6659045697        0.1623329475
 H       -16.2632303846        2.1781709772        0.4747857203
 H       -10.9167156279        0.2116075642        6.5865455132
 H       -10.2897293064        1.0700553976        5.1638358676
 H       -11.6564925469       -0.2428328605        5.1570149640
 H       -12.6412804804        1.5886131456        7.8778473752
 H       -13.5293662255        0.2845733214        6.9666167058
 H       -14.2256579195        1.8187074694        6.9514811116
 H        -6.0770181600        4.2099111008        2.1908125948
 H        -5.9180400471        5.1617702246        3.6912311690
 H        -6.1792213571        5.9450575049        2.2022138906
 H        -8.1676643444        6.9359801467        3.9077242307
 H        -9.5919888871        6.6007665408        2.8642056452
 H        -7.9674839611        7.1861162880        2.1777591162
 H        -9.0115702440        4.7105777665       -5.5813368029
 H       -10.0678321076        4.8798136246       -4.3336511202
 H        -9.4275914820        3.2753866979       -4.8822508400
 H        -6.8537068985        3.9372882440       -5.2978371896
 H        -7.2446476011        2.5737599080       -4.0820705335
 H        -5.9857962204        3.7342024888       -3.8270704580
 H        -4.4497375202        9.0909812646       -6.6133310284
 H        -4.1245199264       10.8973172078       -6.6886322114
 H        -5.7371490519       10.2662365233       -6.5572500783
 H        -2.7811950831        8.8694198996       -4.3084677258
 H        -2.8911200661       10.2432539428       -3.2801506424
 H        -2.3565355645       10.3811595469       -5.0658060249
 Na      -10.3824247057        2.1358360311        0.1589299087
