117

 C        -4.3362003099       12.3476524397       -3.6460989229
 C        -5.1894734708       11.2392983187       -4.1619764441
 O        -6.3683730879       11.4687018091       -4.4490262885
 C        -4.4323180075        9.8546254222       -4.6609270269
 C        -5.1798858782        8.5470187951       -4.2354561476
 O        -4.5279391537        7.6375543549       -3.7488475815
 C        -6.6604503419        8.3084009170       -4.4695072537
 C        -6.9993378138        6.6707059678       -4.7569719150
 C        -7.7665646003        5.9776916782       -3.6271301731
 O        -8.1379224381        6.5378289936       -2.6282989605
 C        -8.1159684486        4.4312192505       -3.6737520106
 C        -8.4691519327        3.9770747231       -2.2952456892
 O        -9.2968862467        3.0986405915       -2.0735311182
 C        -7.5501857837        4.2150333244       -1.0240763535
 C        -8.3218093420        5.1528716642       -0.0613671482
 C        -8.6874795589        4.5942965478        1.3606407888
 O        -9.4544361471        3.6569851943        1.4916394831
 C        -8.1529407055        5.1457062160        2.6437324487
 C        -8.6130163619        4.0711117659        3.9362174219
 O        -7.7112492025        3.5136766078        4.5310147661
 C       -10.1213493183        3.8386869427        4.3082695434
 C       -10.1404015161        3.5036137420        5.8217583708
 C       -11.5724346908        3.1754918796        6.1793145561
 O       -12.3759614142        4.0412249740        6.4160587369
 C       -12.2591378839        1.6821435620        5.8992436642
 C       -13.0378048616        1.7810619101        4.5153991465
 O       -12.4893863337        2.2230535593        3.5359276857
 C       -14.5376797290        1.2384142478        4.4141796422
 C       -15.1794365579        1.5720448784        3.0804809919
 C       -15.2921516498        0.3776083203        2.2055195330
 O       -15.5194960404       -0.7382910700        2.6612721228
 C       -15.0474962241        0.5011361125        0.6023421532
 C       -13.4740083029        0.2148022581        0.2844371880
 O       -12.7531304227        1.1552944476       -0.0099959858
 C       -12.9209217813       -1.1602189585        0.7226118655
 C       -11.7528600701       -1.5921184960       -0.1975800270
 C       -10.5031902650       -0.8109768256       -0.0196891589
 O       -10.2160775120       -0.1532420073        1.0403901009
 C        -9.5010477391       -0.9612088343       -1.0814642495
 C        -8.1258885171       -0.1821688018       -0.6359401410
 O        -8.2814663305        0.9443870823       -0.1674600411
 C        -6.7888950986       -0.8012126798       -0.7818905871
 C        -9.3535977058       -2.5213416280       -1.3625660610
 C        -9.5990195166       -0.1561951519       -2.4012442995
 C       -16.0021920358       -0.5402032896       -0.0039803983
 C       -15.3683010893        1.9450055188        0.1069712824
 C       -11.2145776890        0.5025642286        5.7214623146
 C       -13.1270425049        1.3592687869        7.1400700345
 C        -6.5395330536        5.0324883409        2.6666033353
 C        -8.5043407555        6.6439827628        2.8976036985
 C        -9.3484642556        4.1901917476       -4.6667599555
 C        -6.7057731937        3.5794545937       -4.0569539044
 C        -4.5053617173        9.9791317966       -6.2547776628
 C        -2.8909678373        9.8466856287       -4.4159798692
 H        -4.8788791475       13.2649686187       -3.5657288522
 H        -3.5293729611       12.6631528750       -4.3039847173
 H        -3.9457674720       12.2742485201       -2.6745128641
 H        -7.0622264610        8.9058724239       -5.2143142881
 H        -7.1014918334        8.5904307711       -3.4524921546
 H        -6.0757901587        6.2368724173       -4.9380342351
 H        -7.5523214423        6.6515729409       -5.7258609869
 H        -6.5438891660        4.5379185352       -1.1059579036
 H        -7.5094474402        3.2490278189       -0.3504534391
 H        -9.3347198921        5.4356821852       -0.4675231419
 H        -7.6377342745        6.0498352770       -0.0152807201
 H       -10.4856358836        2.9440925276        3.6344977550
 H       -10.7927992589        4.6264084269        3.9881034383
 H        -9.7906213651        4.4173984875        6.3260971926
 H        -9.5239499742        2.7059434588        5.8797197668
 H       -15.1431407512        1.8432699950        5.1549943649
 H       -14.6012871436        0.1363431192        4.5260599805
 H       -14.6094644408        2.3982302974        2.5590909595
 H       -16.2315457572        1.9220033690        3.1238441168
 H       -13.7476815215       -1.8416705415        0.7994813657
 H       -12.6824743583       -1.0101762629        1.7876176425
 H       -12.0583101712       -1.3267120388       -1.3154384490
 H       -11.5672405961       -2.6344844076       -0.1260980385
 H        -6.6961848343       -0.8940019011       -1.8349620317
 H        -6.7271199947       -1.8775009772       -0.3269167382
 H        -5.9685442733       -0.0869600672       -0.4961720146
 H       -10.1446659326       -2.8580097677       -2.0255478144
 H        -9.3663276310       -3.0074241535       -0.3862716297
 H        -8.3999336851       -2.6522093979       -1.7985545606
 H       -10.2473530104       -0.6750607092       -3.1480502888
 H        -8.6674439312       -0.1699924139       -2.8966637127
 H       -10.0317484475        0.8985547317       -2.3139866912
 H       -15.5055828017       -1.0988609849       -0.8468215311
 H       -16.7966501692        0.1491948249       -0.4256651604
 H       -16.5371909854       -1.1258656911        0.7132590871
 H       -15.2520073465        2.1871118323       -0.9905462513
 H       -14.7154845162        2.6900366371        0.4469595892
 H       -16.4184399194        2.3296220086        0.2660773611
 H       -10.8336990891        0.0162126045        6.7004152248
 H       -10.4023834711        0.7564643569        5.0682378587
 H       -11.8153997469       -0.2758897135        5.4183137387
 H       -12.5631822609        1.7690441025        7.9538846270
 H       -13.2010208011        0.3046861022        7.2752630774
 H       -14.2279151539        1.5622340715        7.1433516013
 H        -6.0760080673        4.2533279116        2.0623970543
 H        -6.2148334959        4.8672264180        3.6918836355
 H        -6.0815194176        6.0351580190        2.4878696585
 H        -8.2814898980        6.8479153097        3.8957830626
 H        -9.4563616420        6.9284153553        2.6945738149
 H        -7.8038791038        7.2407948226        2.3532171543
 H        -9.3849531962        4.7996989940       -5.5371232466
 H       -10.1650836778        4.5066627243       -4.1120029726
 H        -9.3297286362        3.1235440814       -5.0344167275
 H        -6.4494847015        3.6205272143       -5.1364157479
 H        -6.7718283300        2.6010944271       -3.5278509795
 H        -5.8469240707        4.0426784329       -3.6427680996
 H        -3.9390547248        9.1143548690       -6.6810203331
 H        -4.2694823153       10.9458692247       -6.6859039263
 H        -5.5384135434        9.8254042698       -6.5408231817
 H        -2.4507522539        8.7554620543       -4.5559123971
 H        -2.5161231348       10.1302885466       -3.3917188305
 H        -2.4908264491       10.4168078773       -5.3011223528
 Na      -10.3454133911        2.0154453555        0.2220283437
