117

 C        -6.5711528465       -4.9836002513        4.9370532714
 C        -6.5044718347       -5.1397646144        3.3633869143
 O        -5.9254964671       -6.0671354573        2.8461110677
 C        -7.2992282346       -4.1465060152        2.3798371075
 C        -8.8282065512       -4.2772111992        2.8834287899
 O        -9.1303147322       -5.2386431919        3.6240752831
 C        -9.7356097844       -3.1896120763        2.3617616545
 C       -11.3104141730       -3.4049355525        2.3393998739
 C       -11.8965213437       -1.9115543602        2.1983801469
 O       -12.4935739169       -1.4394146121        1.2989462751
 C       -11.6858253759       -0.9733479534        3.6280223103
 C       -10.5131567343       -0.0360172100        3.3163342713
 O        -9.3627346145       -0.3544954343        3.5658534945
 C       -10.7434677098        1.2451400896        2.4382489766
 C        -9.5331647401        1.8807456410        1.7587962056
 C        -9.9035806748        2.6637508927        0.4509566571
 O        -9.7457484379        3.8545206405        0.4664173212
 C       -10.3005851077        1.8743471821       -0.8670007633
 C       -11.8874893612        2.0698974776       -0.9631673688
 O       -12.6694367720        1.9106848858       -0.0256145062
 C       -12.5457952795        2.3833521217       -2.3883728196
 C       -13.2211636066        3.7796254898       -2.4809809584
 C       -12.3544935842        4.9349865008       -2.0504701682
 O       -11.3999010428        4.8492661043       -1.3249242296
 C       -12.9227072523        6.4142737497       -2.3769139833
 C       -11.7342629541        7.3954532880       -2.8384403783
 O       -10.8630481194        7.6086702062       -1.9678139648
 C       -11.7436657059        8.1581590742       -4.1922883090
 C       -10.4978778766        9.1499067568       -4.2298202699
 C       -10.6462476822       10.4150010899       -3.4161602959
 O       -11.6912369567       10.8368399244       -2.8816419310
 C        -9.2747961173       11.1966778598       -3.2574114530
 C        -8.3871687776       10.3732416233       -2.2018416772
 O        -7.7873552951        9.3380264523       -2.3927532686
 C        -8.7111571468       10.8277946929       -0.7560563786
 C        -7.6903053951       10.0755746547        0.2312516468
 C        -7.9952396116        8.5697661237        0.2109838272
 O        -9.1440002524        8.2048973130        0.0777726026
 C        -6.6684375321        7.5239887272        0.3187981504
 C        -6.6956618802        6.7760437861       -1.0873428324
 O        -7.5675683912        6.0594447540       -1.4537461997
 C        -5.6347194420        7.1966375556       -2.1012830221
 C        -5.3781036307        8.2888752287        0.6462619393
 C        -7.0931831122        6.4175775564        1.3108838437
 C        -8.6987357693       11.4112498926       -4.6815544408
 C        -9.5328983101       12.6104474412       -2.6970628367
 C       -14.0776583938        6.3790039503       -3.3836418446
 C       -13.5857592813        6.8897384683       -0.9965203177
 C        -9.4605573218        2.5169586495       -1.9719598817
 C       -10.0874807388        0.2896754748       -0.7906841614
 C       -12.9779653151       -0.1351900276        3.9270401663
 C       -11.4312718262       -1.8622701033        4.8609825149
 C        -6.9046051913       -2.6984860403        2.5787559967
 C        -7.2780202169       -4.5626806971        0.9180807348
 H        -5.6089827144       -4.8459870589        5.3858665206
 H        -7.0977839507       -5.8845747132        5.3126123647
 H        -7.1345459229       -4.1226258155        5.1530511239
 H        -9.5218964385       -3.0719806923        1.3260061157
 H        -9.6110075415       -2.3459296147        3.0679038956
 H       -11.7842581199       -3.9951229828        3.0964378806
 H       -11.5552333810       -3.8892977118        1.3917648985
 H       -11.1506598965        2.0136375061        3.1577287839
 H       -11.5228395555        0.9452384525        1.6754698496
 H        -8.8405152776        1.1809132711        1.4059927380
 H        -9.0260488605        2.5544664215        2.4965865564
 H       -13.2436833432        1.5617399630       -2.5185815497
 H       -11.7465140067        2.3178508640       -3.1114780354
 H       -14.1849707704        3.7207709450       -1.9702392738
 H       -13.4290156197        3.9160219021       -3.4809939916
 H       -12.8031772579        8.6721851407       -4.3080789536
 H       -11.6480878891        7.4300051196       -5.0312022129
 H       -10.2410596040        9.3561819736       -5.2579259483
 H        -9.6757452431        8.5533622446       -3.7406706473
 H        -9.7345252688       10.5989357950       -0.5716973802
 H        -8.5658175703       11.9182712418       -0.5029017780
 H        -7.8762192512       10.2756179076        1.3305014811
 H        -6.6648067645       10.3179224987        0.0866128044
 H        -5.9131068458        8.2000189152       -2.4576880647
 H        -5.5744014189        6.4364805232       -2.9330616390
 H        -4.6969789571        7.3028465555       -1.7118700155
 H        -5.3384664725        8.7905024923        1.5801492719
 H        -5.2500958938        9.0327629694       -0.1668444055
 H        -4.5286266916        7.5971643120        0.5183698284
 H        -6.6416219029        6.6417054144        2.3144217324
 H        -6.6132404959        5.5511268112        1.0089565343
 H        -8.2134715981        6.1349899666        1.2498592732
 H        -7.7840865295       11.9047080280       -4.8057415462
 H        -9.4724695617       11.9876222567       -5.1930063291
 H        -8.4627501736       10.4808882665       -5.1393916863
 H        -8.6557166177       12.9737141231       -2.2597948533
 H       -10.3334544306       12.5258903129       -2.0183595750
 H        -9.9981464550       13.1663806757       -3.5034214507
 H       -14.7406662017        5.6262804275       -2.9873335253
 H       -13.6577954894        5.9087203558       -4.2510500967
 H       -14.5000384457        7.3962627045       -3.7372540696
 H       -14.3953912345        6.1498926783       -0.6082629316
 H       -13.8917771448        7.9261439440       -1.1383378966
 H       -12.7750888422        7.0315670769       -0.1884355111
 H        -9.3680946462        1.8003817481       -2.7861945159
 H        -8.3995198326        2.7424099865       -1.6821652662
 H        -9.7600623652        3.4493644819       -2.4429580126
 H       -10.6519059049       -0.0787608410        0.0173196430
 H        -9.0929978362        0.0850549316       -0.5511734365
 H       -10.3522327218       -0.1543712118       -1.7816908821
 H       -13.7978983516       -0.8924817318        3.8698325551
 H       -13.2222250032        0.6058002223        3.1717100045
 H       -12.9917149130        0.3012790023        4.9209651818
 H       -12.2429136390       -2.5723276576        5.0422940751
 H       -11.5165346053       -1.2841562942        5.7328487414
 H       -10.4854286522       -2.4007722254        4.8667475789
 H        -7.3163533429       -2.2420263388        3.5337276989
 H        -7.3654772270       -2.0419618319        1.8178297288
 H        -5.7595502551       -2.6521767661        2.5900927372
 H        -7.8426133413       -5.4434750605        0.7814821604
 H        -6.2642586300       -4.8421980784        0.6453521775
 H        -7.6599084458       -3.7456363820        0.2736732262
 Na       -9.6625135772        6.1592320652       -0.5090507742
