117

 C        -4.4333091504       12.4921723170       -4.0308000401
 C        -5.1269490789       11.1238770576       -4.3788149229
 O        -6.3507142377       11.1117992422       -4.5186868463
 C        -4.3696189985        9.7771008101       -4.7030925325
 C        -5.1033828858        8.3234770114       -4.2600692135
 O        -4.4628817322        7.3752951465       -3.9108532794
 C        -6.6711309541        8.2436906963       -4.3378968478
 C        -6.9912419347        6.8211591656       -4.7147997741
 C        -7.8062819742        6.1279609850       -3.6835731436
 O        -8.2536852049        6.5778767757       -2.6840680745
 C        -7.9390297620        4.4509835350       -3.7177153400
 C        -8.3373042444        3.9296477207       -2.2850104807
 O        -9.3406721649        3.2840471376       -2.1853907351
 C        -7.5121954861        4.3575734635       -0.9782486647
 C        -8.4204332039        5.2053596708       -0.0344500344
 C        -8.6485015723        4.5876509965        1.4109328077
 O        -9.3889028777        3.6278454047        1.4436624104
 C        -8.1407214892        5.1703193406        2.7793127298
 C        -8.6296078647        4.1242642931        3.8080052662
 O        -7.7702079722        3.3722588909        4.3112270696
 C       -10.0527102132        4.0284339979        4.3199700119
 C       -10.1925357963        3.4229820800        5.8009238033
 C       -11.6558662691        3.2546706302        6.0472124083
 O       -12.4101028117        4.1542920085        6.3648715226
 C       -12.2175563517        1.7025636838        6.0333121176
 C       -13.0172724771        1.7028796698        4.6763163558
 O       -12.4444946491        2.0822810498        3.7122585606
 C       -14.4980136956        1.3315258494        4.5168380522
 C       -14.9706540682        1.6095971131        3.0998218526
 C       -15.2498060148        0.4078770152        2.2236097689
 O       -15.5290158022       -0.6645526438        2.6384930123
 C       -15.2305866943        0.5606486647        0.5577248084
 C       -13.6704108050        0.2440426894        0.3133415424
 O       -12.9690280084        1.1809630172       -0.0453042397
 C       -13.0755779066       -1.1130873956        0.6132102129
 C       -11.8737718847       -1.5427176753       -0.2386502859
 C       -10.5775110382       -0.7943082374        0.0855631220
 O       -10.3690468129       -0.2493758214        1.2034066146
 C        -9.2941893888       -0.9297559860       -0.9568124869
 C        -8.0344785361       -0.1662879771       -0.3938871593
 O        -8.1192804953        0.9940577213       -0.0911134600
 C        -6.6816744458       -0.8388123753       -0.7350542017
 C        -9.3213855507       -2.4219577577       -1.3049239741
 C        -9.6091687715       -0.0992414767       -2.2914674884
 C       -16.0745335650       -0.5265526891       -0.1730163925
 C       -15.4297134035        1.9873117422        0.1152014414
 C       -11.2381026130        0.4755192508        5.7495557112
 C       -13.0889684422        1.4491939827        7.2709348348
 C        -6.5969470783        5.0287726733        2.5748385570
 C        -8.6112326416        6.6007792213        3.0066253049
 C        -9.1322958841        4.0442816611       -4.5831771223
 C        -6.6808545857        3.6982953847       -3.9793075270
 C        -4.4573784340        9.8781990615       -6.3735154096
 C        -2.9145909392        9.7409631329       -4.3353051696
 H        -5.0444863045       13.2824253120       -3.6527296702
 H        -3.8519695120       13.0212193989       -4.6998220923
 H        -3.8354766846       12.3167323840       -3.0668799868
 H        -7.1014221765        8.9275507901       -5.1022945782
 H        -7.0565709421        8.4767411626       -3.3409820905
 H        -6.0400074632        6.3142130213       -4.8938690472
 H        -7.4253309671        6.9103225190       -5.6316506075
 H        -6.7627468945        5.0822477130       -1.2564492697
 H        -7.0453093764        3.6564482212       -0.3374846478
 H        -9.4734236834        5.3351222863       -0.3822410809
 H        -7.8807471755        6.1155801953       -0.0601962677
 H       -10.6836455098        3.4246139871        3.5459126216
 H       -10.4953849332        5.0158565100        4.2836232221
 H        -9.8353337616        4.2159326325        6.4285918557
 H        -9.6120214572        2.4942917772        5.7986503908
 H       -15.0147780444        2.0235777249        5.2743097456
 H       -14.4870181748        0.2719041686        4.7408052749
 H       -14.2050270810        2.2446092747        2.6528510507
 H       -15.9349389997        2.2074893231        2.9899368056
 H       -13.8591243555       -1.8231391754        0.6770665164
 H       -12.8211411670       -1.0743543643        1.7622386504
 H       -12.0638568587       -1.7093749020       -1.3532676966
 H       -11.5992354068       -2.5266088018        0.2549662742
 H        -6.4969220634       -0.8594542927       -1.8255417724
 H        -6.4848142795       -1.8308029878       -0.2817574960
 H        -5.9689300467       -0.0815119679       -0.4079375176
 H       -10.2790117200       -2.3756860007       -1.8604023472
 H        -9.5268193690       -2.9315648998       -0.3574502834
 H        -8.5430507402       -2.8844924228       -1.9017900826
 H       -10.5208121491       -0.4672912392       -2.8320907106
 H        -8.8115035708       -0.1607279081       -3.0328488968
 H        -9.8584825585        0.9924421362       -2.0364006671
 H       -15.8108756962       -0.5330517726       -1.2349482551
 H       -17.0375314884       -0.2707345658        0.0397935015
 H       -15.9615905049       -1.5755586387        0.3350718340
 H       -15.0885193135        2.3101128985       -0.8741050588
 H       -14.8128186462        2.7567844123        0.6734402892
 H       -16.4475876355        2.3550850280        0.0909955299
 H       -10.4783330885        0.3696848912        6.5433302479
 H       -10.6872956864        0.7121916842        4.8341630273
 H       -11.8071584869       -0.3942958543        5.8711094365
 H       -12.4753767856        1.6911251594        8.1786975851
 H       -13.4475693892        0.4193894043        7.3402722972
 H       -14.0026612154        1.8578642599        7.1599920709
 H        -6.3804312093        4.1045262291        1.9380804328
 H        -6.1295340839        4.7332534233        3.4902308133
 H        -6.0590891272        5.9276669527        2.2708914422
 H        -8.4878217748        7.0213078187        3.9282545083
 H        -9.6485142423        6.6444816084        2.6982628202
 H        -8.1290462617        7.2452003459        2.3361912366
 H        -9.3105112773        4.7325932535       -5.4797037943
 H       -10.0207628683        4.2563631369       -3.9222777603
 H        -8.9910183078        3.0458449875       -4.9867705489
 H        -6.3392795036        3.6029785181       -4.9892482494
 H        -6.7134815819        2.7912632439       -3.3577640667
 H        -5.8408595641        4.2725266915       -3.5347952980
 H        -3.7392512804        9.1217246466       -6.7885403881
 H        -4.3469471592       10.8393642613       -6.7611090312
 H        -5.4756507620        9.5646663039       -6.7166920812
 H        -2.4213180219        8.8218494887       -4.6532636644
 H        -2.8286975202        9.6473901406       -3.2030555219
 H        -2.3869902904       10.5949438973       -4.8584587295
 Na      -10.3188119685        1.9270753134        0.1513506168
