117

 C        -4.7499819724       11.9745655429       -5.7420635336
 C        -5.1741291921       10.7146205322       -4.9626482925
 O        -6.1933678157       10.6496567296       -4.3389437416
 C        -4.2427338520        9.3223818161       -5.1503142827
 C        -5.0137534170        7.9481146469       -4.7706008404
 O        -4.4062196354        6.9030067269       -4.6152944437
 C        -6.5176579600        7.9835527703       -4.4804938057
 C        -7.2061808514        6.5973859054       -4.7966779249
 C        -7.8437896388        6.0876263002       -3.6237361993
 O        -8.6827620615        6.6741729516       -2.9766705535
 C        -7.6273846300        4.4658541572       -3.4064910533
 C        -8.4276190416        4.1042853405       -2.0695407410
 O        -9.2839452772        3.2473976277       -1.9670848722
 C        -7.9201289980        4.8393370984       -0.8924896246
 C        -8.9131397999        5.4851782859        0.0719188652
 C        -8.8857205468        4.6081425291        1.4478016419
 O        -9.5363315434        3.5773604028        1.2958501841
 C        -8.2509681957        5.1868233612        2.7017116918
 C        -8.6564745915        4.1979062665        3.7954106842
 O        -8.1333457564        3.1222195179        3.7123278484
 C        -9.6508179710        4.5471711248        4.9978138875
 C       -10.0355274128        3.1165901968        5.5722487598
 C       -11.5039871483        3.1699826787        6.0162475810
 O       -12.2215978682        4.1578323470        6.1547486460
 C       -12.3285379541        1.7940150493        6.2209176111
 C       -12.8075966750        1.4893842441        4.7324893248
 O       -12.0316554391        1.3144522797        3.8360772102
 C       -14.3103896891        1.5073548368        4.4702157292
 C       -14.7914291764        1.9004402977        3.0889832077
 C       -15.1097063633        0.6404160258        2.2017083573
 O       -15.5274865364       -0.3837392329        2.6894633834
 C       -15.0646626093        0.8697944050        0.6605146428
 C       -13.5144980881        0.5812626442        0.1914104369
 O       -12.9171500470        1.5768527981       -0.2335534657
 C       -13.0888187985       -0.8560231693        0.5894525790
 C       -11.9144029067       -1.5133856609       -0.1638358947
 C       -10.6367638014       -0.7707932202        0.2538213869
 O       -10.5162977649       -0.0995509652        1.2201452760
 C        -9.3267127757       -0.9400893498       -0.8608355894
 C        -8.2885223541       -0.2153506177       -0.0808349087
 O        -8.4304500683        0.9058847179        0.2990110140
 C        -6.7938488347       -0.8019316217        0.2537718777
 C        -9.2565449914       -2.4447103510       -1.1083702306
 C        -9.5887442003       -0.0926823076       -2.1935464001
 C       -16.0098080420       -0.1794773370        0.0586744540
 C       -15.5364239954        2.2304085493        0.1831182235
 C       -11.3904022648        0.7408899752        6.6598134528
 C       -13.5433485249        1.9070893842        7.2824426268
 C        -6.7185915955        5.1184461708        2.5091470981
 C        -8.8252687510        6.6375538333        2.9384376959
 C        -8.4314239656        3.7445375612       -4.5126363757
 C        -6.1492543999        3.9549616073       -3.1018345643
 C        -3.7551623235        9.1849192218       -6.5043713447
 C        -3.0036714319        9.6478636921       -4.1436693526
 H        -5.3656513800       12.7583490311       -5.3897614045
 H        -4.8605047009       12.0578262991       -6.7658753019
 H        -3.8030671279       12.4195844367       -5.3894213246
 H        -7.0052273749        8.9553957259       -4.8604619218
 H        -6.5763224129        7.9978167196       -3.4106731122
 H        -6.4977395823        5.9611489097       -5.3007841049
 H        -7.9967051345        6.8028675075       -5.3710833211
 H        -7.1902844296        5.5702754487       -1.3532366202
 H        -7.3433109438        4.1303176269       -0.3631455061
 H        -9.8582121107        5.3841989129       -0.5608778460
 H        -8.6735733713        6.5558693683        0.0477585839
 H       -10.6205610185        4.8506473734        4.5409596732
 H        -9.2649099177        5.2943157853        5.7646406840
 H        -9.3935895227        2.9486743256        6.3856366780
 H        -9.8236760864        2.4040838450        4.7559400994
 H       -14.6792397845        2.2503737719        5.2419047623
 H       -14.6252246481        0.4740051239        4.7252397484
 H       -14.1824431808        2.5630128080        2.4658540374
 H       -15.6972501718        2.5812387240        3.3201191684
 H       -13.9406184958       -1.5322922049        0.6383749885
 H       -12.9434980887       -0.8590541942        1.7141642015
 H       -11.9160688323       -1.4895258551       -1.2567921373
 H       -11.7777607982       -2.6071397705        0.2140264034
 H        -6.1061480864       -1.1096100264       -0.6471262414
 H        -6.8113280856       -1.5298163275        1.0168420707
 H        -6.3217655452        0.1428472237        0.5534690289
 H       -10.2577072804       -2.7332685602       -1.4109013701
 H        -9.0875130095       -2.9215992919       -0.1590499225
 H        -8.6428972813       -2.7601942540       -1.9417883584
 H       -10.1872727613        0.7923720120       -2.0106955441
 H        -9.8352486488       -0.7628082126       -3.0952576961
 H        -8.6474302466        0.3619314987       -2.4638092510
 H       -16.9367130725       -0.2942084305        0.5740334633
 H       -15.4918720056       -1.1003396886        0.2302950088
 H       -16.4272780191        0.0907582460       -0.9642010209
 H       -15.7898296898        2.1654131300       -0.9054073871
 H       -14.6827887755        3.0758564682        0.1643624942
 H       -16.3119142886        2.7776094951        0.7552495581
 H       -10.9753408428        0.8008266886        7.5947444994
 H       -10.5639577548        0.5758220776        5.9060932475
 H       -11.9874838368       -0.2276870268        6.5185055865
 H       -13.4906722348        1.0758068839        7.9900856587
 H       -14.4578644405        1.5359006913        6.7817068149
 H       -13.8306311970        2.8713248297        7.5586556978
 H        -6.3476660579        4.1198093855        2.8803689158
 H        -6.2206315912        5.8152474758        3.1648988464
 H        -6.3349174542        5.2485681415        1.5091616392
 H        -8.6596058345        6.9956359334        3.8968625650
 H        -9.8511821721        6.7052117380        2.7125456326
 H        -8.4828625782        7.2940256225        2.2974011127
 H        -7.9038494566        3.5320949630       -5.4594460061
 H        -9.3581148552        4.3630994699       -4.6884132844
 H        -8.8676430405        2.9283741436       -4.0810896146
 H        -5.5310292533        3.7384204555       -3.9584691696
 H        -6.2343196472        2.9142141175       -2.7476313241
 H        -5.5610171799        4.5373377844       -2.3116572998
 H        -3.2967703276        8.1831891265       -6.6643417406
 H        -2.9599816944        9.8653193112       -6.7650798449
 H        -4.6720055100        9.2324068534       -7.1885095879
 H        -2.5022909991        8.7558867566       -3.7169601920
 H        -3.4785643616       10.2038503930       -3.2048388828
 H        -2.4441541196       10.3804994391       -4.8510559251
 Na      -10.4084271354        2.1096522296       -0.2614164423
