117

 C        -4.7673806983       11.6502187518       -6.1070440370
 C        -5.1168964852       10.5683646533       -5.1473697622
 O        -5.9414909543       10.6013302777       -4.2650318921
 C        -4.2258725226        9.3405632554       -5.2599653706
 C        -5.0523169397        8.0965523967       -4.7905332351
 O        -4.4425911718        7.0314624223       -4.8425375140
 C        -6.5967650736        8.0562616058       -4.6468066409
 C        -7.1597263226        6.6241460577       -4.9865086817
 C        -7.8978623033        5.9265943201       -3.7582248569
 O        -8.6244200737        6.6034664728       -3.0229684909
 C        -7.6888948400        4.3007042357       -3.2343215514
 C        -8.4428654582        4.0322454491       -1.8991483640
 O        -9.3223040101        3.1639949490       -1.9966413395
 C        -8.0055416877        4.8780975256       -0.7221927604
 C        -9.1478164023        5.6001927126        0.1770046271
 C        -9.1288230861        4.6876241978        1.4684699075
 O        -9.6096045243        3.5806278408        1.5160827546
 C        -8.3935767978        5.2742865964        2.6410908583
 C        -8.7226056220        4.1476220095        3.7957740325
 O        -8.1766883569        3.1218066532        3.6692471522
 C        -9.5265249000        4.4586538344        5.0276415014
 C       -10.1448946001        3.0815834591        5.6129317777
 C       -11.5343636904        3.2014816556        6.0883803928
 O       -12.0870719643        4.2702773811        6.1041525044
 C       -12.4114715739        1.7126310739        6.2060493444
 C       -12.8314769888        1.5289506031        4.7659414661
 O       -11.9307120643        1.0374453559        4.0365460660
 C       -14.3681999133        1.5502739464        4.4423549617
 C       -14.6637692150        1.9703141223        3.0078328269
 C       -15.1221994638        0.7204856089        2.2099708615
 O       -15.4222880918       -0.2999848135        2.8376712623
 C       -14.9946371827        0.9514932858        0.6186362059
 C       -13.5292926065        0.6658654930        0.3327184460
 O       -12.7689918977        1.4467181321       -0.2619847548
 C       -13.1131686543       -0.6748362346        0.6934343354
 C       -11.9540967856       -1.4541791652       -0.1430734468
 C       -10.5722574830       -0.6075700808        0.1120603353
 O       -10.5834743348       -0.0712485243        1.1881372258
 C        -9.3657142403       -0.9327972773       -0.7976181909
 C        -8.1512207438       -0.1971067373       -0.0348451351
 O        -8.4866901807        0.9720079965        0.2466133306
 C        -6.8964798190       -0.8249565021        0.5029238292
 C        -9.2356679838       -2.4477459558       -1.1157656425
 C        -9.5118741775       -0.2622713870       -2.2660764020
 C       -16.0478341385       -0.0801355252        0.0218296288
 C       -15.3352207541        2.3762466210        0.1190828097
 C       -11.4625389531        0.5635662977        6.7684772018
 C       -13.5546615685        2.0716799284        7.1969886392
 C        -6.8370204106        5.2140606989        2.5112229556
 C        -8.7874844012        6.7046930420        3.0210416700
 C        -8.1401887069        3.5240545585       -4.5204684827
 C        -6.1730923628        3.9458904572       -3.1693229847
 C        -3.6403938309        9.1105703280       -6.6250073105
 C        -3.0747462774        9.5629116691       -4.0437893231
 H        -5.3313519337       12.5811291066       -6.0477563501
 H        -4.9844493297       11.3462749540       -7.1953356683
 H        -3.8031393228       11.9779796976       -5.9915966037
 H        -7.0176906529        8.9132582019       -5.2491404641
 H        -6.8720231437        8.2550657879       -3.6255594715
 H        -6.2776595569        6.0604925602       -5.2914479891
 H        -7.8243643865        6.8029846866       -5.8435151966
 H        -7.3119025355        5.5661582655       -1.1995400581
 H        -7.4451472461        4.2528195647       -0.1125360311
 H        -9.9857312753        5.7338107060       -0.4548947247
 H        -8.7628294509        6.5974329584        0.4217698184
 H       -10.2017189770        5.2201423161        4.9150856436
 H        -8.7092053481        4.7018314761        5.8584032802
 H        -9.4505100746        2.9259254418        6.4200959421
 H       -10.0364561218        2.2278857708        4.8597149142
 H       -14.6923439609        2.2851400082        5.1481900979
 H       -14.8023406490        0.5011191011        4.7044406405
 H       -13.9290982735        2.4548291492        2.3696821506
 H       -15.4352038391        2.7781129534        3.0682472611
 H       -14.0826365045       -1.3470837267        0.8860443285
 H       -12.8923246722       -0.6482884366        1.7863312631
 H       -12.1687454002       -1.5631621731       -1.1857863675
 H       -11.7800214706       -2.5161630571        0.3193713748
 H        -6.2995189833       -1.3682395384       -0.2426915551
 H        -7.3544299716       -1.4513089802        1.2495325049
 H        -6.2198822776       -0.0308766228        0.9042554389
 H        -9.9737030328       -2.8046862888       -1.8084206305
 H        -9.4754171558       -2.9272126872       -0.1668637383
 H        -8.2401822481       -2.7241234402       -1.5367734924
 H        -9.6827980764        0.8322749948       -2.2650317743
 H       -10.1822031549       -0.9175563924       -2.9255639570
 H        -8.5592690179       -0.3975950869       -2.7608325636
 H       -16.7352748677       -0.5125394805        0.7530863235
 H       -15.5001585545       -0.9948052399       -0.2716041591
 H       -16.6695979544        0.3525072170       -0.6505394631
 H       -15.6226294077        2.3090565977       -0.9663168825
 H       -14.6754400719        3.2368575253        0.1521165935
 H       -16.2136384758        2.7650153692        0.7381020268
 H       -11.1237001321        0.7649595774        7.7637570842
 H       -10.6313828460        0.2946912361        6.1461865859
 H       -12.0744761884       -0.4090670471        6.7255043762
 H       -13.3544544653        1.7732730169        8.1773827823
 H       -14.4071586985        1.4093855926        7.0101123888
 H       -13.9065244185        3.1317719563        6.9562354596
 H        -6.4208456545        4.2349757844        2.6495209325
 H        -6.4718214139        5.8075191900        3.4222035801
 H        -6.3584986500        5.6222459036        1.6108309717
 H        -8.5437713701        6.9740109313        4.0132782663
 H        -9.7886138140        6.8902574967        2.9308570192
 H        -8.3968481699        7.4255264759        2.3136575797
 H        -7.3596085877        3.6810307534       -5.2870349607
 H        -9.1364243712        3.8871123249       -4.8611510170
 H        -8.4105553267        2.4706004749       -4.2854380048
 H        -5.8078489836        3.6105508189       -4.1565792245
 H        -5.9872373393        3.0002432728       -2.6917756516
 H        -5.5294262358        4.6857702771       -2.6464389530
 H        -2.9619423558        8.2990827737       -6.6383807039
 H        -2.9258879059        9.9683080421       -6.8182717340
 H        -4.4100062406        8.9393906320       -7.4028773761
 H        -3.0682473490        8.5318542676       -3.5688027117
 H        -3.4596456052       10.2029133719       -3.2470888404
 H        -2.1510988094        9.9282134224       -4.5245079707
 Na      -10.5469868025        2.2372522531       -0.2052103350
