117

 C        -5.5072317260       10.5733150291       -7.0525412790
 C        -4.9822664587       10.3448031176       -5.6448251305
 O        -4.9791690190       11.1090033530       -4.6712674171
 C        -4.3036974451        8.9335928744       -5.4326747135
 C        -5.0395650874        7.5519090323       -5.4314970547
 O        -4.3541522489        6.5902591773       -5.1908017282
 C        -6.5692652904        7.4874503679       -5.4810848380
 C        -7.1826484296        6.0909116153       -5.2677913556
 C        -7.8098314030        5.8200116194       -3.9093172074
 O        -8.3879045737        6.7156521627       -3.3143417777
 C        -7.5609837028        4.3536537613       -3.2018310597
 C        -8.5431124930        4.1768869240       -1.9300457406
 O        -9.4834537558        3.3725534547       -1.9048228963
 C        -8.1332857527        4.8195399150       -0.4868926344
 C        -9.5076595717        5.2751150463        0.2835679429
 C        -9.5993410528        4.6518014797        1.6650422134
 O       -10.6585426774        4.0196056144        1.7972295333
 C        -8.6915256503        5.1172453894        2.9472700111
 C        -8.5106299508        3.8995816722        3.9613650682
 O        -7.7859026555        2.9762659909        3.5601286222
 C        -9.2993639117        4.0903743621        5.1746872949
 C       -10.0291249775        2.8250929138        5.7279745974
 C       -11.5321175115        3.1904760984        6.1175771956
 O       -11.9321718331        4.2847377736        5.9686730780
 C       -12.4783242047        1.9715652765        6.5522689836
 C       -13.0102271148        1.4460859344        5.2757556842
 O       -12.6168556483        0.4346042513        4.6829680884
 C       -14.1823047011        2.3301005175        4.6474944221
 C       -14.0615581684        2.2791939556        3.1388569215
 C       -14.7421142858        1.1351312697        2.2073982728
 O       -15.4985846648        0.3276082383        2.6210484271
 C       -14.7725604616        1.1885721728        0.4402622673
 C       -13.4226716568        0.7018303540       -0.0444690349
 O       -12.5772656484        1.5233080023       -0.4049666517
 C       -13.1806402065       -0.7034702618        0.2380071193
 C       -11.8595216698       -1.4673982633       -0.1441241586
 C       -10.5719999348       -0.6196248897        0.2492622716
 O       -10.6575996697        0.3142860327        1.0243547484
 C        -9.3385803004       -0.9306967662       -0.6648577688
 C        -8.2217157058        0.0219736162        0.1478314812
 O        -7.9234279616        1.0348944483       -0.5306139015
 C        -7.3748515176       -0.3348132354        1.2865784187
 C        -9.1711064427       -2.5419078260       -0.6546912075
 C        -9.5996954286       -0.5592865097       -2.0854049085
 C       -16.0356326153        0.3342864890        0.0067812331
 C       -14.9022564346        2.6769065554       -0.1172867452
 C       -11.6290846079        0.8389603053        7.2007654873
 C       -13.5439419195        2.3785596053        7.5565946809
 C        -7.3621487148        5.5656199286        2.4477999293
 C        -9.4382229681        6.4972635181        3.3377874994
 C        -7.7791014358        3.2494526389       -4.2820344681
 C        -6.0103261025        4.2778617190       -2.7705607630
 C        -3.2508920169        8.8605071230       -6.5450448944
 C        -3.5954576150        9.0559157968       -4.0571302939
 H        -6.2495792833       11.3563473822       -7.0152597028
 H        -6.0470027330        9.7234031915       -7.5593640516
 H        -4.7938317691       10.8869971476       -7.7362531810
 H        -6.9199665816        8.0776554944       -6.3603291918
 H        -6.9301308007        8.1779002820       -4.6806433822
 H        -6.4365318409        5.4567443530       -5.5716538614
 H        -8.0255995240        6.1184485721       -5.9559671472
 H        -7.2777177397        5.4896657883       -0.5019830432
 H        -7.8058806598        3.9293739111        0.0594088937
 H       -10.4420021251        5.1711936219       -0.2665674243
 H        -9.4607428444        6.4085153684        0.3550104722
 H       -10.1415589371        4.6087875064        4.8537725207
 H        -8.5597472414        4.5748953412        5.9380481158
 H        -9.5682969742        2.2413677195        6.4862681386
 H       -10.1828885868        2.0719480846        4.9158257181
 H       -14.0393369654        3.3101645749        5.0457836700
 H       -15.1168713696        1.7920102067        5.0880402041
 H       -13.0138973927        2.6050979861        2.9100173249
 H       -14.5161908188        3.1551005059        2.6111003168
 H       -14.1131031620       -1.2478980748       -0.2747797456
 H       -13.5051596527       -0.9468822699        1.2736603867
 H       -11.7860580036       -1.6059537910       -1.2326443954
 H       -11.7615413743       -2.4990624573        0.3452689543
 H        -6.6767883056       -0.9645038951        0.8214666500
 H        -8.0758445594       -0.9642493952        1.9111679510
 H        -6.8359535332        0.5517568585        1.7207609558
 H       -10.1183668006       -2.9714058560       -0.8649545583
 H        -8.7934067841       -2.9552557732        0.2757880249
 H        -8.4442093120       -2.8677777351       -1.4174720151
 H        -8.6934551482        0.0271994161       -2.3907748254
 H       -10.4839726518       -0.0095766516       -2.3718244415
 H        -9.5956432890       -1.5038906417       -2.6613724324
 H       -15.7753426815       -0.6793187713       -0.4024532615
 H       -16.4152716381        0.8071049147       -0.9368322999
 H       -16.8467160790        0.3384583939        0.6596844424
 H       -14.8177911988        2.5605901461       -1.2661037701
 H       -14.1272031107        3.3274091043        0.2264322356
 H       -15.9101203306        3.1774523306        0.2369802812
 H       -10.9527844230        1.3546219667        8.0235640442
 H       -11.0240039646        0.3855306116        6.4704573414
 H       -12.1558183217       -0.0033600169        7.6542792185
 H       -13.0504887223        3.0815536558        8.1780372373
 H       -13.8111469107        1.5496605723        8.1589139179
 H       -14.3078004887        3.1177137565        7.2059385354
 H        -6.7588894182        4.7364489930        2.2464223786
 H        -6.8462631009        6.2338229431        3.1910688271
 H        -7.3278205515        6.0747726471        1.4994667707
 H        -9.1599242878        6.9919585277        4.1584521210
 H       -10.4614266467        6.4901458586        3.4434219550
 H        -9.1042834986        7.1269914904        2.5420961955
 H        -7.9332588898        3.7561466131       -5.1793155525
 H        -8.5672097874        2.6166123466       -4.0323661855
 H        -6.8931143789        2.5405595216       -4.3982915972
 H        -5.4041626178        4.5303613368       -3.7063336288
 H        -5.5798998706        3.3286588231       -2.4288297891
 H        -5.8216723856        4.9825296921       -1.9687894557
 H        -2.7868652202        7.8987314440       -6.7025374760
 H        -2.4297317078        9.6518434441       -6.4398838905
 H        -3.8865678522        9.0148703624       -7.4167315607
 H        -2.5301837467        8.5261751437       -4.1383528834
 H        -4.3550651002        8.7739036379       -3.2604381804
 H        -3.4949161125       10.1493792021       -3.7352459217
 Na      -10.1749045425        2.3772123419        0.0491789783
