117

 C        -5.8023877962       10.2293195157       -7.0555118779
 C        -5.0930233536       10.1384739256       -5.7183552040
 O        -4.9498211206       11.1836844034       -5.0691721538
 C        -4.2173710368        8.8252061134       -5.4619791420
 C        -5.0119853451        7.4950009399       -5.4601248789
 O        -4.4688717594        6.4294212881       -5.3423094195
 C        -6.5959083755        7.4384194367       -5.6255169829
 C        -7.1240442594        6.0419657562       -5.3587869432
 C        -7.7392205329        5.8522653580       -3.8733230995
 O        -8.3019355746        6.6931944428       -3.2831286825
 C        -7.5602850586        4.4384963364       -3.1626035023
 C        -8.4759235087        4.1759072647       -1.8527038353
 O        -9.3990305275        3.4546416486       -2.0409707566
 C        -8.1446006606        4.7810387451       -0.4631064282
 C        -9.4822943497        5.3179513686        0.2891817067
 C        -9.8121269916        4.7479661229        1.6090656988
 O       -10.6722815992        3.9141417025        1.8241094240
 C        -8.8260497066        5.0983176418        2.7710741420
 C        -8.5887024852        3.8879509478        3.9045861019
 O        -7.7574710725        3.0379792521        3.5978370182
 C        -9.2845338339        3.9752663243        5.2388774230
 C       -10.1127875002        2.7410217895        5.7129753898
 C       -11.5308117232        3.1544326223        6.1536981305
 O       -11.9368449884        4.2870731620        5.9247446203
 C       -12.3705979964        2.0375553376        6.6825997306
 C       -13.0540247256        1.3651642967        5.2955337987
 O       -12.8125139142        0.3081783983        4.8808394254
 C       -14.1332690860        2.3367372788        4.4896600865
 C       -13.9812960955        2.4365794651        2.9164964081
 C       -14.7872733281        1.4328324824        2.1375702398
 O       -15.4917679955        0.5814837344        2.6501320795
 C       -14.6911651763        1.3868557719        0.4843516839
 C       -13.3799945970        0.8178490470       -0.0454261019
 O       -12.5218744796        1.4923461847       -0.5073353194
 C       -13.2251354267       -0.8912856205        0.0373088606
 C       -11.8726919970       -1.4502566196       -0.0708541909
 C       -10.6595075309       -0.6219005525        0.2882683345
 O       -10.5892759379        0.2628179037        1.1109202135
 C        -9.2531828768       -0.9976300986       -0.5810040913
 C        -8.1007657967       -0.0095999923       -0.0452231449
 O        -7.9379941007        1.1022110595       -0.6590063176
 C        -7.5423084781       -0.2062620336        1.3952579051
 C        -9.0144107493       -2.4473539764       -0.4559953288
 C        -9.5616036003       -0.5172811914       -1.9889001579
 C       -15.8781897428        0.5070956060        0.0947230996
 C       -14.9459588291        2.8397806320        0.0382456581
 C       -11.6084570537        0.8320405521        7.3248672208
 C       -13.4770235314        2.5481213151        7.6436072002
 C        -7.3953986934        5.6470597255        2.4784577243
 C        -9.6316850897        6.3689958003        3.3420054644
 C        -7.7785608757        3.2700003651       -4.1091726905
 C        -6.1467942118        4.3879865313       -2.6491855049
 C        -3.0274482979        8.7409415903       -6.5253093626
 C        -3.6253261094        8.7941167408       -3.9898170629
 H        -6.6387003488       10.9278606432       -6.9429007655
 H        -6.1773203766        9.3785483655       -7.5950012311
 H        -5.0733284587       10.6671688966       -7.8577866482
 H        -6.7345193069        7.8271786255       -6.5607736522
 H        -7.2138272750        8.1490183479       -4.9964408602
 H        -6.1750436157        5.5295631111       -5.4236751995
 H        -7.8320300783        5.6910239575       -6.1983751372
 H        -7.3706287095        5.4445009986       -0.4862807527
 H        -7.7631461577        3.9124842358        0.1166549586
 H       -10.3243196513        5.3378030585       -0.3455455868
 H        -9.2644382046        6.3660247883        0.4081785287
 H       -10.0742744289        4.7911249789        5.2666002155
 H        -8.5156046700        3.9739746624        5.8755423821
 H        -9.6352457950        2.1938922834        6.6195617466
 H       -10.2827706627        1.8631524572        5.0659255984
 H       -13.9714348823        3.3309656773        4.9040119434
 H       -15.0799040697        1.8984737713        4.8554371240
 H       -12.9403035348        2.7337682968        2.6583150601
 H       -14.3722070760        3.3933765662        2.5842877541
 H       -13.8347755618       -1.4638936578       -0.6319194789
 H       -13.6526366481       -1.3469698130        1.0129700480
 H       -11.6393077280       -1.9830827002       -1.0725990151
 H       -11.7559894161       -2.1782898528        0.6472149841
 H        -6.6964016747       -0.8649722596        1.4242525941
 H        -8.4404741100       -0.6226641437        1.9343511253
 H        -7.2350428913        0.7715839046        1.7074977844
 H        -9.8598923718       -2.9803402041       -0.9157449802
 H        -8.7952667775       -2.8481510235        0.5391629005
 H        -8.1050299957       -2.6897069311       -0.9819417798
 H        -8.5785255443       -0.2106621517       -2.4642449675
 H       -10.1972833689        0.3119845959       -2.0951043807
 H        -9.9526548519       -1.4318170147       -2.5638922209
 H       -15.5903875271       -0.3820638535       -0.3853124742
 H       -16.4491091717        1.0269986866       -0.5987578366
 H       -16.6588574282        0.3499823193        0.9079781513
 H       -15.0515774789        2.8401429791       -1.0887433091
 H       -13.9436305185        3.3231932920        0.2429556885
 H       -15.7143862747        3.4135240590        0.5715604615
 H       -10.9823540747        1.0049197921        8.2435699299
 H       -11.0191846920        0.3412948244        6.5036764948
 H       -12.3170174998        0.0922885891        7.5921252318
 H       -13.1563785096        3.0176522245        8.5766981170
 H       -14.1153571664        1.6782368884        7.7761327782
 H       -13.8960568168        3.4189060546        7.2418040909
 H        -6.7377362695        4.7690083830        2.4034626716
 H        -7.0861349559        6.2357849720        3.3081038966
 H        -7.0938731972        6.2072338572        1.5668459147
 H        -9.3519837830        6.7329486265        4.3308070529
 H       -10.7138110670        6.2342415341        3.4319410134
 H        -9.3035292389        7.1919084797        2.8076784450
 H        -8.0279885977        3.6082190157       -5.1475365159
 H        -8.5587108023        2.5929400823       -3.7023812721
 H        -6.8450503355        2.6480464832       -4.1325597973
 H        -5.3345724028        4.3941086646       -3.4324119298
 H        -5.9468269285        3.4281613941       -2.0472492760
 H        -5.9995516577        5.1743411349       -1.9029554941
 H        -2.3761203818        7.8081200242       -6.4192315326
 H        -2.4207972236        9.6484043697       -6.6346165244
 H        -3.6425559598        8.5608608003       -7.4247858085
 H        -2.7661334719        8.2165713127       -4.1891024502
 H        -4.3881455421        8.4861237199       -3.2187413817
 H        -3.3506615277        9.7952285957       -3.5872706337
 Na      -10.0739379562        2.3815304568        0.0138177456
