117

 C        -6.0231775152        9.9690973491       -7.1081961983
 C        -5.0037138059       10.0248368056       -5.9112380021
 O        -4.9322242143       11.0536474945       -5.3355554809
 C        -4.2304168941        8.6830536601       -5.5081002169
 C        -5.0677704167        7.3978139982       -5.5815997513
 O        -4.4873243601        6.3173919681       -5.5032384431
 C        -6.6256522118        7.3072893271       -5.6518676969
 C        -7.1625743199        5.9303809850       -5.1503217422
 C        -7.6600211363        5.8569132417       -3.7996206339
 O        -8.2387401864        6.8352676203       -3.3218859676
 C        -7.4752361055        4.4011482693       -3.0665451395
 C        -8.5067624696        4.2492432227       -1.8911253010
 O        -9.4778527653        3.4796666675       -1.9878026271
 C        -8.2465813805        4.8217958436       -0.5821389983
 C        -9.3818734097        5.3462115891        0.1506069346
 C        -9.6433959515        4.6072690959        1.5656064776
 O       -10.5468168324        3.8232684611        1.7025327131
 C        -8.8999867204        5.1374311881        2.8414982094
 C        -8.7183859677        3.9728313344        3.8441637846
 O        -7.8940328991        3.1763067081        3.5569714668
 C        -9.2303772925        3.9856270636        5.3037932156
 C       -10.0054220789        2.7277512228        5.6468994116
 C       -11.5003381707        3.0384445782        6.0920167438
 O       -11.9597313615        4.2007799359        5.9518566935
 C       -12.4967741338        1.9213907544        6.5608315972
 C       -13.1998907048        1.4319145821        5.2548324108
 O       -12.9289410410        0.2440633825        5.0791304285
 C       -14.0579878629        2.3948788864        4.3748159982
 C       -13.8203725613        2.5910798907        2.8395887994
 C       -14.7528863493        1.5142196663        2.1451333885
 O       -15.4544253181        0.8023893871        2.8379440847
 C       -14.6634233389        1.5284951367        0.5351148718
 C       -13.2849289322        0.7989779520        0.0550236779
 O       -12.3986959229        1.3870247875       -0.5431636734
 C       -13.2237429144       -0.7154255965       -0.0143619990
 C       -11.8267839581       -1.4409776015        0.0280247080
 C       -10.5735168348       -0.5995421748        0.2980484313
 O       -10.6216036400        0.2527975127        1.1606316841
 C        -9.2261892199       -0.9597888149       -0.5397863395
 C        -8.2670641617        0.1107030717       -0.0324883430
 O        -7.9257112589        1.0648331123       -0.6738286233
 C        -7.7045015011       -0.1282812978        1.4478753037
 C        -8.7522119942       -2.3637857529       -0.2192088836
 C        -9.5636481644       -0.4980861907       -2.0927004496
 C       -15.9353652112        0.6662224924       -0.0084578699
 C       -14.8641536226        3.0009910128        0.1440724988
 C       -11.6637727988        0.8677743514        7.4064772982
 C       -13.4680887272        2.6429431634        7.6661121481
 C        -7.4974690671        5.6479519216        2.4913473773
 C        -9.8053530767        6.2418669208        3.4818584061
 C        -7.7783456160        3.2099612405       -4.1173169080
 C        -6.0093426289        4.5143597971       -2.4982885504
 C        -3.0192083186        8.6221064030       -6.4034868216
 C        -3.6163846215        8.7034831976       -3.9292791312
 H        -7.0210859894       10.3236227998       -6.7688841863
 H        -6.1097914324        8.9567554202       -7.5395850639
 H        -5.7095737726       10.4781793102       -8.0818877872
 H        -6.8712080610        7.4931367493       -6.7021166491
 H        -7.1663294378        8.0821937945       -5.1644112961
 H        -6.2854543127        5.1784445134       -5.3420046214
 H        -8.0509853115        5.6957823970       -5.7948562106
 H        -7.3880572369        5.5251301360       -0.7464623855
 H        -7.7898706280        3.9995227067       -0.0326118642
 H       -10.2807260223        5.0480948084       -0.3876252762
 H        -9.3513247363        6.3831768786        0.1322025207
 H        -9.9150266916        4.8108747494        5.5970404881
 H        -8.2851641622        3.8252484717        5.8067682350
 H        -9.5420639434        2.0642089878        6.4537378807
 H       -10.0896444082        1.9566512354        4.8688232017
 H       -14.0074977240        3.3736281691        4.9237825528
 H       -14.9782316994        1.9613429015        4.5663120960
 H       -12.7763145132        2.5104860465        2.5974972861
 H       -13.8675870701        3.6352137470        2.5436341186
 H       -13.5166743221       -0.9554528693       -0.9901349460
 H       -13.9447363335       -1.2298140839        0.5942419370
 H       -11.6925396414       -1.8509337372       -0.9589329962
 H       -11.8246080669       -2.2576327977        0.7249112476
 H        -6.8325548850       -0.8568323562        1.3654937416
 H        -8.4103560733       -0.3920742125        2.1484800446
 H        -7.2258674038        0.8021268370        1.5822596016
 H        -9.3406793019       -3.0958268398       -0.8142243722
 H        -8.6472167476       -2.7101667709        0.8129260749
 H        -7.7118490485       -2.3599283921       -0.5544931135
 H        -8.7461329235       -0.6643251312       -2.7661171562
 H        -9.7987179417        0.6277974192       -2.1962739988
 H       -10.3858747967       -1.1127348120       -2.3959868675
 H       -15.5899302332       -0.2172946921       -0.4806629841
 H       -16.6394242540        1.2278108368       -0.6394435814
 H       -16.6167652325        0.3892393092        0.8202437759
 H       -15.1133774185        2.9943302052       -0.8713707372
 H       -13.8512976581        3.5249970799        0.2407432122
 H       -15.6151146812        3.5243247090        0.6950954918
 H       -11.2401033684        1.2747740853        8.2202428615
 H       -10.9242773585        0.3330762018        6.7435838192
 H       -12.3502150884        0.0844645201        7.8355916343
 H       -13.1215486978        2.8265647051        8.7058231177
 H       -14.4159959562        2.1022662408        7.5712313040
 H       -13.5005421178        3.6724893649        7.4402585441
 H        -6.9066149991        4.7979874759        2.0401509572
 H        -6.9653217185        6.1113201019        3.2932903371
 H        -7.4742932218        6.3909578253        1.6886272018
 H        -9.3809145391        6.6327208999        4.5195941568
 H       -10.7237987400        5.6977505898        3.7724637390
 H        -9.8679424836        7.2581819025        3.0343749503
 H        -8.1608632094        3.5458659445       -5.1480936431
 H        -8.5762521895        2.5347141564       -3.5916602806
 H        -6.9110826370        2.5976636667       -4.2552192551
 H        -5.2438095375        4.3569296867       -3.2411529908
 H        -5.8788711660        3.7049115564       -1.7540080247
 H        -5.7487373498        5.4703529936       -1.9298782274
 H        -2.2967193478        7.9194151879       -5.9301035243
 H        -2.5950802833        9.6121558237       -6.4241267584
 H        -3.2201395779        8.2534283384       -7.4366739953
 H        -2.9408826774        7.9443335387       -3.9513035225
 H        -4.3768274385        8.7236738609       -3.2334486657
 H        -3.1010762807        9.5822375956       -3.7310939883
 Na      -10.1078878497        2.3294731938       -0.0553944243
