117

 C        -5.8588033629        9.3915209392       -7.8524615599
 C        -5.0686781813        9.5180949053       -6.5107716107
 O        -4.7947488551       10.6110620544       -6.0817787405
 C        -4.4189777793        8.2716282671       -5.8657424126
 C        -5.2300525426        6.8707137547       -5.9123268055
 O        -4.5893631025        5.8166917772       -5.9914653565
 C        -6.7852125439        6.9534795651       -5.6444287750
 C        -7.3756457139        5.6082836797       -5.1550816499
 C        -7.6122915644        5.5278683102       -3.6798387857
 O        -7.7051298949        6.6209555699       -3.1136988787
 C        -7.2736922805        4.1950292617       -2.7584533839
 C        -8.4126919099        4.2811958504       -1.6682531562
 O        -9.4698785204        3.7874046651       -1.9642615181
 C        -8.3668291301        5.3312275223       -0.6267918823
 C        -9.5997033341        5.5300072934        0.2323255769
 C        -9.5236946263        4.6511542281        1.5185811821
 O        -9.7315501543        3.4518868759        1.3155713918
 C        -9.1403140871        5.2658673321        3.0378559041
 C        -8.7824152146        3.8793835295        3.8779520810
 O        -8.2168432427        2.9980446898        3.2997584951
 C        -9.0238657136        3.8407156491        5.4196560780
 C        -9.8981901842        2.6405837811        5.8666836729
 C       -11.3715698507        3.1427767197        6.0899417566
 O       -11.5922748289        4.3393429737        5.8461665611
 C       -12.4892056317        2.0964720226        6.6681225811
 C       -13.3566069862        1.5795300894        5.3576906585
 O       -13.5322973550        0.3707293094        5.1867782856
 C       -13.5971676579        2.6906760931        4.2902143399
 C       -13.2273573756        2.1738793329        2.8633768091
 C       -14.4466613204        1.6390146886        2.1568769135
 O       -15.4631019632        1.2621201887        2.6340734891
 C       -14.4118468072        1.8220737486        0.5052133514
 C       -13.3399668503        0.9315466791       -0.1072107285
 O       -12.3178883147        1.4958702019       -0.5840946803
 C       -13.3610236519       -0.5860662222        0.2060663467
 C       -11.8831455543       -1.2921118387        0.0779630059
 C       -10.6158636923       -0.4347374786        0.5488601505
 O       -10.6494596392        0.4042864215        1.4753555158
 C        -9.3167577163       -0.6752205213       -0.0880193516
 C        -8.4255705094        0.4698488427        0.2598494760
 O        -8.3839982311        1.3793020949       -0.4846231290
 C        -7.5565878878        0.4767475037        1.6054872274
 C        -8.8750826635       -2.1265645916        0.3914246703
 C        -9.4630082513       -0.6620596337       -1.7277615408
 C       -15.7244046871        1.4383703753       -0.1988966475
 C       -14.2072532294        3.3894863669        0.1771284021
 C       -11.9126876001        0.8404915172        7.2529464495
 C       -13.4726575999        2.8439627731        7.5271856372
 C        -7.9781346160        6.2191996326        3.0653687730
 C       -10.5716337358        5.7666121328        3.5275772148
 C        -7.4822331127        2.8743745767       -3.5183139748
 C        -5.8666043358        4.1986890046       -2.2000858090
 C        -2.9629385155        8.0435192702       -6.2149174128
 C        -4.3226651004        8.4600680183       -4.3132606395
 H        -6.7930568857        8.7946700023       -7.9966551381
 H        -5.1129138687        9.4146135805       -8.7090494490
 H        -6.1877242101       10.3731068719       -8.0623703595
 H        -7.4088449611        7.4308848330       -6.4262642431
 H        -6.9278993814        7.6268575035       -4.8629064322
 H        -6.5995387757        4.7817212654       -5.5279067116
 H        -8.2685010046        5.4570200460       -5.7722529942
 H        -8.1023556295        6.2368997037       -1.2398344484
 H        -7.5021298625        5.1206498669       -0.0888819770
 H       -10.4043483688        5.1045306271       -0.3451588291
 H        -9.8522422705        6.5124397319        0.4700257487
 H        -9.4538032278        4.7846753987        5.7737796225
 H        -8.0052768902        3.5888238262        5.9191624073
 H        -9.5880514095        1.9793440870        6.7227860643
 H        -9.8771518370        1.7956820929        5.1111088987
 H       -13.1177649443        3.6593841136        4.6601188084
 H       -14.6349821909        2.9204864652        4.1965688027
 H       -12.4310591813        1.3855524244        2.9060697803
 H       -12.6567359108        2.9932739556        2.3386123590
 H       -14.0514956162       -1.1263905281       -0.3974054265
 H       -13.5890521642       -0.6497914650        1.2151352538
 H       -11.6746373061       -1.5232170448       -0.9021417842
 H       -11.9671041978       -2.2655055488        0.5822582827
 H        -6.7477942831       -0.2649409709        1.3118532829
 H        -8.1064574710        0.2832440984        2.4660267143
 H        -7.0405016796        1.4361486512        1.6228815174
 H        -9.6175447152       -2.9292594055        0.3027877150
 H        -8.4696728905       -2.1322370767        1.3922848625
 H        -8.0744613121       -2.4773944770       -0.2706357298
 H        -9.3463711030       -1.4850303562       -2.4009365764
 H        -8.7018281785        0.2086829522       -1.9766671217
 H       -10.4640947545       -0.2808386509       -1.8857926069
 H       -15.8258356409        1.5923833626       -1.2575563676
 H       -16.4902553914        1.8665503381        0.4623564819
 H       -15.8665344333        0.4090887672       -0.1127414909
 H       -14.1604762161        3.5518462432       -0.9021111373
 H       -13.4075792967        3.9520659158        0.7058843595
 H       -15.2889325081        3.6313347240        0.3263184845
 H       -11.4452583826        1.1915047682        8.1424764503
 H       -11.1975993222        0.3379769264        6.6213812553
 H       -12.7649224671        0.2458895276        7.6919356188
 H       -12.9439466670        3.2123803344        8.3970163682
 H       -14.4051774059        2.3539441227        7.6006296300
 H       -13.7460023953        3.7779563055        6.9753849181
 H        -6.9721595844        5.7520708347        2.9130849782
 H        -7.8451223350        6.7729091926        4.0020077083
 H        -8.0915001227        6.9987822303        2.3342628290
 H       -10.5296132903        6.2415616709        4.5271843410
 H       -11.3121732200        5.0201155788        3.4023475226
 H       -10.9790450645        6.5402815740        2.8172011235
 H        -8.5239347716        2.5421278428       -3.3561484894
 H        -6.9833452470        2.0059619509       -3.0570549303
 H        -7.3644882277        3.1257758313       -4.5679067236
 H        -5.2011313141        4.7027224629       -2.8488913960
 H        -5.6030172357        3.2127550446       -1.8569732052
 H        -5.6934562260        5.0069745909       -1.4201356921
 H        -2.6932114141        7.0738540705       -5.7834797390
 H        -2.4300031277        8.9028839423       -5.7562363670
 H        -2.7039126622        8.1000739066       -7.3048038828
 H        -3.7221355419        7.5551279514       -3.9072662288
 H        -5.3318202215        8.5358094954       -3.9829478551
 H        -3.7568270196        9.3489419843       -4.1212232508
 Na      -10.2681346699        2.3460349666       -0.5849885762
