117

 C        -5.2987100327        9.1060985534       -8.1835148933
 C        -5.0329170219        9.2949581069       -6.6920315507
 O        -4.8246261207       10.4295578942       -6.3482644969
 C        -4.5648287429        8.0846068833       -5.8805924581
 C        -5.3847587692        6.7784907449       -6.0739250146
 O        -4.8665190961        5.6990436890       -6.3041566485
 C        -6.9311216794        6.7172714674       -5.9283463768
 C        -7.3099000488        5.3258643209       -5.1809848439
 C        -7.2382976052        5.4150294958       -3.6269742440
 O        -7.3274724332        6.4890795247       -3.0873947167
 C        -7.2717314698        4.2443126565       -2.6254094079
 C        -8.4821852956        4.5538010992       -1.6744356631
 O        -9.5421884634        4.1241799006       -1.9936802938
 C        -8.2753248991        5.5325231596       -0.5845878970
 C        -9.4109504871        5.6247357881        0.4549442939
 C        -9.5107038424        4.5086169915        1.5672820208
 O        -9.7661689679        3.4372752677        1.1626218568
 C        -9.3600073930        4.9103172029        3.0997413867
 C        -8.7044196667        3.6860810931        3.9441565787
 O        -8.0511815760        2.8748679592        3.3311231788
 C        -8.9061790078        3.9117941481        5.4851266590
 C        -9.7286672032        2.7915386288        6.0692162500
 C       -11.2829940828        3.1729829188        6.2196348447
 O       -11.7020616515        4.3079069046        6.0953865599
 C       -12.3442157445        2.2241402035        6.5824091882
 C       -13.1494760550        1.7450421498        5.3364222186
 O       -13.5873849752        0.6257485649        5.3682104347
 C       -13.5513927910        2.6501072378        4.0895927799
 C       -13.2767085211        2.1082975450        2.6548790874
 C       -14.5894358700        1.8855951340        1.9099833812
 O       -15.5876587009        1.4068156776        2.4467255891
 C       -14.4247854639        2.0183302942        0.3085783087
 C       -13.2333927316        1.0033543472       -0.1668536197
 O       -12.4362076044        1.3409172344       -0.9821859939
 C       -13.2105191521       -0.3601471522        0.4893751823
 C       -11.9682452831       -1.0925324240        0.1081133846
 C       -10.8088679896       -0.3526578898        0.7094340536
 O       -10.9173150237        0.4148969148        1.6285634612
 C        -9.3164689348       -0.5925490484        0.0863154651
 C        -8.2966960242        0.5364976499        0.4357009852
 O        -8.1958576864        1.5092511587       -0.3774247673
 C        -7.3965676579        0.3181886597        1.6384420536
 C        -8.8681013464       -1.9393737871        0.6697519011
 C        -9.4388384628       -0.8638043309       -1.4188090147
 C       -15.7353719114        1.4823621861       -0.2635475160
 C       -14.0622444301        3.5713287614       -0.0469759125
 C       -11.7721151979        1.0196399022        7.4282306077
 C       -13.3010173205        2.9612518351        7.5673567296
 C        -8.3819798257        6.1453518901        3.2959702222
 C       -10.8830661277        5.4333731190        3.4027160016
 C        -7.3841535798        2.8963296468       -3.4321816912
 C        -5.8705386639        4.1790857291       -1.9197428149
 C        -3.1235939387        7.7616569999       -6.4345445663
 C        -4.6565559097        8.4751857743       -4.3574370544
 H        -6.0533478482        8.3477068433       -8.3026881573
 H        -4.3566689787        8.8620358287       -8.5996989117
 H        -5.7562225696        9.9487179075       -8.8300869708
 H        -7.2343359245        6.6232705074       -6.9566958292
 H        -7.5554535262        7.6263001769       -5.5882676243
 H        -6.4930127881        4.8340441045       -5.5545968415
 H        -8.2379068907        4.7893818876       -5.5036636247
 H        -8.1947330861        6.5263503489       -1.0507031114
 H        -7.2639241491        5.3943283730       -0.0356162585
 H       -10.4333273958        5.5631738361        0.0139494390
 H        -9.3412157620        6.6282901820        0.9469562063
 H        -9.5358570428        4.8493903413        5.7014526809
 H        -8.0260815046        3.9478449355        6.0280735180
 H        -9.3756474013        2.4628999120        7.0136749866
 H        -9.7736672963        1.8497150641        5.5712059111
 H       -13.2180736307        3.6345496252        4.2647186350
 H       -14.6504394236        2.7349058541        4.1908318328
 H       -12.8312590541        1.1812336698        2.9759534569
 H       -12.5129120205        2.6359957383        2.0972017971
 H       -14.0747462482       -0.9093012060        0.1206769873
 H       -13.1243706855       -0.3246981320        1.6514463736
 H       -11.9079632462       -1.3489535656       -1.0380998202
 H       -11.9537226306       -2.0561053666        0.5884221301
 H        -6.7325880130       -0.5074890585        1.4425521171
 H        -8.2160060074        0.0954295450        2.3504457337
 H        -6.9131116526        1.2272373291        1.9445397238
 H        -9.4670770252       -2.7889638345        0.2982114324
 H        -8.9141920981       -2.0024839045        1.7630837451
 H        -7.8833137639       -2.2513600091        0.3306380431
 H       -10.2599931540       -1.5780963257       -1.4547158573
 H        -8.6015236195       -1.3899117952       -1.7499471757
 H        -9.6961015060       -0.0630664614       -2.1091391815
 H       -16.0602287070        2.1779725207       -1.0236541394
 H       -16.4760287254        1.3855124698        0.5185120442
 H       -15.6448850862        0.5366970174       -0.9480445960
 H       -14.2420854169        3.7020669329       -1.0864777118
 H       -13.0008585721        3.6034960530        0.1269071149
 H       -14.6509650256        4.2054011258        0.5329096508
 H       -11.4715544459        1.2733686030        8.4332184583
 H       -10.8915268417        0.5661697007        6.8885547187
 H       -12.5680508916        0.3369759392        7.4841737975
 H       -12.6322120751        3.6468280929        8.1666619650
 H       -13.7665972190        2.1398146808        8.1989988140
 H       -14.2131872455        3.3833629818        7.1581266417
 H        -7.3282210254        5.8715527498        3.2214598764
 H        -8.3646289794        6.5663388864        4.2899096437
 H        -8.5553239129        6.9922954886        2.5947969011
 H       -11.0155981010        5.5834507236        4.5142427935
 H       -11.7103542171        4.7953813566        2.9247156025
 H       -11.0969571496        6.3678064053        2.8650371563
 H        -8.4441098546        2.6460253027       -3.6076700735
 H        -7.1315227621        2.0908102772       -2.7533191638
 H        -6.8564706222        3.0019252363       -4.3578060060
 H        -5.0516529525        3.9644317906       -2.6063275914
 H        -5.9880972191        3.4541856124       -1.1195019912
 H        -5.5653707444        5.1202971902       -1.6392173424
 H        -2.7526184355        6.8302213507       -5.9698016626
 H        -2.4292831797        8.5698166838       -6.5143521176
 H        -3.3954694796        7.4818669846       -7.4388872958
 H        -3.9492340478        7.9795484192       -3.7803648003
 H        -5.5742365315        8.0880354052       -3.9183088586
 H        -4.5098383540        9.5438769605       -4.3700399596
 Na      -10.4797504865        2.5374730269       -0.5810997083
