117

 C        -5.1156154907        8.8976361515       -8.4451487830
 C        -4.9852593661        9.1913304440       -6.8296750268
 O        -4.9386143417       10.3107995003       -6.3865135992
 C        -4.7160353850        7.9480961323       -5.9139173866
 C        -5.4967873089        6.5924333528       -6.1673652463
 O        -4.7463228052        5.6872784723       -6.5601329076
 C        -6.9424868353        6.4820348221       -5.9729833965
 C        -7.3674856105        5.2752172053       -5.1548025949
 C        -7.2267867372        5.6326367029       -3.6674605072
 O        -6.9969801885        6.7635990825       -3.2322790929
 C        -7.2079184179        4.2531900309       -2.5777487035
 C        -8.4631286030        4.5172742465       -1.6118539260
 O        -9.6112140719        4.2010041666       -2.0173960550
 C        -8.1578568077        5.4727815135       -0.5076354534
 C        -9.3518985175        5.6559172152        0.4614865837
 C        -9.4120749014        4.5293473777        1.5926133469
 O        -9.8176636966        3.3918745545        1.3643945458
 C        -9.3830700989        4.9249852273        3.0225543252
 C        -8.8070504269        3.8090639793        3.9421398838
 O        -8.1349182916        2.9322540563        3.4393720176
 C        -8.8670772259        3.8980385678        5.4529728328
 C        -9.7369223977        2.8263927480        6.1526963182
 C       -11.2693457505        3.3106456105        6.3002265923
 O       -11.4354261368        4.5659169138        6.0848614471
 C       -12.3182513426        2.2460704381        6.6491843641
 C       -13.1836891502        1.7129161974        5.3751661497
 O       -13.5733526805        0.5541372209        5.3640646429
 C       -13.6054826969        2.6681229544        4.2056737326
 C       -13.3013849152        2.1031336487        2.7617275744
 C       -14.5432128025        1.9200967556        1.9523709309
 O       -15.6324238405        1.6035102949        2.3271010646
 C       -14.3127039320        2.1388492407        0.2919441268
 C       -13.3482871907        1.1382105031       -0.1555779435
 O       -12.5774988364        1.3695928864       -1.0542963772
 C       -13.3036749094       -0.3429066351        0.5220633531
 C       -12.0071907777       -1.1194778502        0.1690515310
 C       -10.7290318952       -0.3287699804        0.7115553478
 O       -10.9025137002        0.4734526889        1.6267791531
 C        -9.3483293879       -0.7479174799        0.1897615478
 C        -8.3434380842        0.5108655250        0.4733518578
 O        -8.2150880507        1.4791031144       -0.2790542073
 C        -7.3805974436        0.2905477397        1.6342688583
 C        -8.8449610635       -1.9330514879        0.9583120756
 C        -9.2854607161       -0.8387846294       -1.4181508726
 C       -15.6900930117        1.5413886504       -0.3996336024
 C       -14.0276099321        3.5365857725       -0.2037469572
 C       -11.7093116701        0.9954119606        7.3930383720
 C       -13.3988407006        2.9109105185        7.5907758819
 C        -8.5210877817        6.1230619411        3.3921356974
 C       -10.8467731160        5.2317361726        3.3019448572
 C        -7.4948646793        2.8878867299       -3.3223159114
 C        -5.8865289759        4.2242830942       -1.7745168540
 C        -3.2924074983        7.6183089872       -6.3414305667
 C        -4.6660174328        8.5080911495       -4.4437538912
 H        -5.8273003217        8.1215904547       -8.5976879261
 H        -4.1456499751        8.6515111499       -8.8532439178
 H        -5.5759150853        9.6564325047       -9.0305449864
 H        -7.5061444803        6.6074617863       -6.8980883326
 H        -7.3116102972        7.3612254628       -5.3661765837
 H        -6.6728318624        4.5035846783       -5.4184672352
 H        -8.3559402274        4.9722737673       -5.3325777917
 H        -7.8674677070        6.4018141674       -0.9895280158
 H        -7.2511805928        5.1861854263        0.0933459894
 H       -10.4315178136        5.5720493008        0.0457850459
 H        -9.2958866792        6.6303682980        0.9831599460
 H        -9.0605180362        4.8554341034        5.9822736847
 H        -7.9092156388        3.5452588682        5.7137271740
 H        -9.3693394785        2.7002400345        7.2125990086
 H        -9.7237871909        1.8625582550        5.7596776532
 H       -12.9880600186        3.6338339957        4.3780689666
 H       -14.6207837597        3.0304470441        4.3206042057
 H       -12.7599224915        1.1743072434        3.0701899062
 H       -12.6093524114        2.7661217352        2.2586750376
 H       -14.1113649041       -0.9676516884       -0.0131059136
 H       -13.3654858862       -0.3365501286        1.6873657374
 H       -12.0193519431       -1.2733867447       -0.9520277562
 H       -11.9782609134       -2.1512231314        0.5712662980
 H        -6.7065682961       -0.5625841367        1.1983097280
 H        -7.8565580777        0.0628445664        2.5238385509
 H        -6.8436167287        1.2548316622        1.6725030032
 H        -9.3840261727       -2.7929204404        0.4828465493
 H        -8.9543251982       -2.0768279946        2.0168271752
 H        -7.8624873554       -2.1854353503        0.6212189110
 H       -10.0913739144       -1.2824286813       -1.8866304803
 H        -8.3089450418       -1.4496866262       -1.6360911682
 H        -9.1256901650        0.1308119667       -1.8397870711
 H       -16.1424830948        2.3739708865       -0.9409609238
 H       -16.4240119169        1.2258702549        0.3813552625
 H       -15.5275347436        0.8204713568       -1.2191356187
 H       -14.3648860042        3.4405737954       -1.2167091299
 H       -12.9098504377        3.5786427733       -0.2742061518
 H       -14.5123403767        4.3108992067        0.3922334344
 H       -11.2649281397        1.2065529133        8.2831288680
 H       -10.9275218853        0.5283277681        6.7165841541
 H       -12.5594343618        0.2681983630        7.4755812691
 H       -12.8819041363        3.6333583857        8.3036755813
 H       -14.1219456030        2.2066071529        8.0816371492
 H       -14.0917313860        3.3401527294        6.9192862818
 H        -7.4342433266        6.0389088260        3.1896580004
 H        -8.4507848361        6.0698015262        4.4292110076
 H        -8.8105225284        7.1289589285        3.1398902226
 H       -11.0713266046        5.2726950451        4.3837444635
 H       -11.3397152324        4.4275718059        2.8924783187
 H       -11.2931685057        5.9937312135        2.7421031586
 H        -8.4305994030        3.0356127537       -3.8540526896
 H        -7.8585998067        2.2120237369       -2.5544044515
 H        -6.7630719834        2.5111758251       -3.9363973576
 H        -5.0599391083        3.6488980617       -2.0998669830
 H        -6.2087141706        3.8926884588       -0.8029469786
 H        -5.5061608485        5.2739920438       -1.7701922225
 H        -2.8554720785        6.9280563653       -5.6143489237
 H        -2.7908559032        8.5234900925       -6.4030099441
 H        -3.2816680654        7.1847343325       -7.3329053944
 H        -4.0636677696        7.8351212578       -3.6945540920
 H        -5.6313002288        8.1994246165       -4.0449017409
 H        -4.3952186616        9.5962123367       -4.4709341901
 Na      -10.5988117435        2.5076251230       -0.7424696966
