117

 C        -5.0022758996        8.7329593054       -8.4893509076
 C        -4.9977152387        9.0532460665       -7.0427433419
 O        -5.1857717865       10.1789379688       -6.6311190151
 C        -4.5976116476        7.8447455326       -6.0571302802
 C        -5.4392659754        6.5018116221       -6.2960210834
 O        -4.9438406527        5.5331665223       -6.7929410925
 C        -7.0254195277        6.3936539079       -6.0029379518
 C        -7.3905684821        5.2995985643       -4.9974781749
 C        -7.0727847674        5.5537238710       -3.6270492891
 O        -6.7498533421        6.6731772679       -3.2966626440
 C        -7.2626154873        4.3918858034       -2.5855829131
 C        -8.4316096311        4.7663724186       -1.7102192042
 O        -9.5551858060        4.1928726114       -1.9123851465
 C        -8.0874028185        5.4047796293       -0.3702080317
 C        -9.3544522730        5.6142569431        0.4801189606
 C        -9.4590015094        4.5476804670        1.5567600292
 O        -9.8313246385        3.3606945699        1.3252083632
 C        -9.4278828791        4.9472002608        3.1243076205
 C        -8.7938853527        3.7746653237        4.0077804689
 O        -8.2245348221        2.8518296023        3.4451421442
 C        -8.7671991635        3.8922686398        5.5326405628
 C        -9.7303297425        2.8608961736        6.2271315686
 C       -11.2148638909        3.4114783924        6.3020197369
 O       -11.3795432708        4.5912213795        6.2054364631
 C       -12.3260211432        2.3013367814        6.6277874815
 C       -13.1446605820        1.6916057911        5.4294203971
 O       -13.4914493910        0.5419965718        5.3220525989
 C       -13.5744673481        2.7053143571        4.4336509381
 C       -13.3048664185        2.2105924955        2.9506647092
 C       -14.5984106409        2.1192210899        1.8791008267
 O       -15.6584890220        1.8424373659        2.3377056582
 C       -14.3471825652        2.1046471906        0.2584252856
 C       -13.3252582280        1.0914368021       -0.1707336989
 O       -12.5324037926        1.3355781952       -1.1167641882
 C       -13.3847601238       -0.3238866996        0.3790569373
 C       -12.0799772471       -1.1044113572        0.2371272276
 C       -10.7121589658       -0.3051053964        0.7012019127
 O       -10.8445446974        0.5720712677        1.5631075798
 C        -9.2350429356       -0.8413742667        0.1778776275
 C        -8.2332326125        0.4482656471        0.4859318379
 O        -8.5101667011        1.4438304656       -0.0974376574
 C        -7.2159726880        0.3967615504        1.6929929781
 C        -8.9310663502       -2.0032081173        1.0642298236
 C        -9.1282569760       -0.8965217009       -1.3357234760
 C       -15.7570808996        1.6969757182       -0.4827882627
 C       -14.0062816241        3.4557990341       -0.2318102186
 C       -11.7253047541        1.0951510544        7.2822019983
 C       -13.5093893325        2.9182162739        7.5797621280
 C        -8.5919853814        6.3478549469        3.4618299756
 C       -10.9133063732        5.1629031856        3.3435212121
 C        -7.5760557404        3.0128725485       -3.2156528109
 C        -5.9472765890        4.2864914313       -1.7633650650
 C        -3.0052784932        7.5782042081       -6.1713183535
 C        -4.8001625553        8.3934357369       -4.5915386167
 H        -5.5946009471        7.8903091527       -8.8318522394
 H        -3.9178844106        8.6507921597       -8.7315262154
 H        -5.4401579941        9.4984819709       -8.9946091983
 H        -7.5504920211        6.0858826505       -6.9563902105
 H        -7.5834238026        7.2034254719       -5.6998172108
 H        -7.0646509731        4.2698684262       -5.4193829948
 H        -8.4457367400        5.3356770221       -4.9145781110
 H        -7.7533906301        6.4381559471       -0.5407159411
 H        -7.3361193380        4.9327708258        0.1435780451
 H       -10.3311362229        5.5869784885       -0.0479839663
 H        -9.3100725292        6.5683776168        1.0041942335
 H        -9.0243383332        4.8395719087        5.8465810591
 H        -7.6768820169        3.6229951342        5.9380073791
 H        -9.5627550890        2.5591183506        7.2991320377
 H        -9.7899674654        1.8797018107        5.6587360580
 H       -13.1537389996        3.7501288111        4.6025783857
 H       -14.6536552085        2.8946994119        4.5863591686
 H       -12.9063023909        1.1825902341        3.1774885642
 H       -12.4836144661        2.9094401365        2.5873601354
 H       -14.1974230856       -0.9092473094       -0.1712691283
 H       -13.5485740533       -0.1295396648        1.3767646451
 H       -11.9952787168       -1.2313073174       -0.7684076778
 H       -12.1101103614       -2.1751317808        0.5946413388
 H        -6.4653426255       -0.3607238267        1.4420666104
 H        -7.7190772721        0.2542641444        2.6721469036
 H        -6.8526077006        1.4402102080        1.6280164888
 H        -9.5891553092       -2.8286837734        0.8156740095
 H        -9.1359959842       -1.8476204776        2.1332993104
 H        -7.9318628566       -2.4441349714        0.9552768151
 H        -9.8870724587       -1.5572139039       -1.8215509881
 H        -8.1511845620       -1.3853336135       -1.4722312588
 H        -9.0525205338        0.0881838714       -1.8235039484
 H       -16.3861582627        2.6424988466       -0.6959563886
 H       -16.4270642624        0.9928285041        0.0400177244
 H       -15.4733999109        1.3610156315       -1.3958201317
 H       -14.1622617293        3.3863008603       -1.3663365045
 H       -12.9335644616        3.5737843729       -0.0267316410
 H       -14.6601030403        4.2165930201        0.3512511647
 H       -10.9790810697        1.4663346412        8.0778241945
 H       -11.1263675736        0.6361716719        6.5615406388
 H       -12.4764041829        0.3086627764        7.5681976627
 H       -13.1151193073        3.2485289023        8.5196168026
 H       -14.3576262370        2.3070291652        7.7058992779
 H       -13.9650446428        3.6615279295        6.8986296940
 H        -7.6434491266        6.4302279525        2.9887047976
 H        -8.2420974612        6.4035096288        4.5081962897
 H        -9.1159007481        7.2377885782        3.2511932870
 H       -11.1896874317        5.4052150919        4.2760393462
 H       -11.2910363443        4.1935702396        3.1747691387
 H       -11.3917239641        5.6499771713        2.5377229406
 H        -8.0882002073        3.0467546871       -4.1255304055
 H        -8.1842160217        2.4346341695       -2.5758626988
 H        -6.5697581452        2.4868587519       -3.3666852856
 H        -5.2391589811        3.6270641711       -2.3087826351
 H        -6.0813132926        3.7954999646       -0.8131125735
 H        -5.4200318288        5.3245212863       -1.7642966143
 H        -2.7709927231        7.0143551267       -5.3292319007
 H        -2.5739581073        8.5983117457       -6.0509642641
 H        -2.6586197193        7.1085115731       -7.0855655170
 H        -4.5576736000        7.5851512410       -3.8083324195
 H        -5.9047862244        8.4086193659       -4.3233138472
 H        -4.1524214351        9.3474943515       -4.5165826163
 Na      -10.5953352589        2.4629154726       -0.8695401343
