117

 C        -4.4037277481        8.1019789515       -8.8998491382
 C        -5.0537135025        8.4980154123       -7.5792992775
 O        -5.9162352355        9.3649692992       -7.4955990130
 C        -4.4380925240        7.6928674104       -6.2766363630
 C        -5.4233014311        6.2829413653       -6.4145396906
 O        -5.0476683004        5.5173313369       -7.2360762497
 C        -6.9807234084        6.3687017951       -5.9306763728
 C        -7.4404255972        5.2645795485       -5.0081889703
 C        -6.8951615412        5.5645352890       -3.4992862295
 O        -6.4391163535        6.5663092294       -2.9587796235
 C        -7.1154391137        4.3100960204       -2.5225249340
 C        -8.3206414622        4.7659660464       -1.5908785094
 O        -9.4806146305        4.3989085686       -1.8186751206
 C        -8.0786776662        5.5336014339       -0.3143154042
 C        -9.4041085178        5.7268622785        0.4853337632
 C        -9.6674057378        4.7166887260        1.6575358330
 O       -10.1667358550        3.6362235394        1.2865934003
 C        -9.5976112368        5.1481382747        3.1908033192
 C        -8.9034569611        3.9137299240        3.9977581967
 O        -8.5071481335        2.9204448144        3.3947754597
 C        -8.9741188373        4.0429120159        5.5237403101
 C        -9.7669268539        2.8703184989        6.1802508994
 C       -11.2994229508        3.4238023916        6.4986962346
 O       -11.4245241688        4.6353867581        6.5940216930
 C       -12.4610038395        2.3231763350        6.7266304817
 C       -13.0268206035        1.6806509264        5.3318391918
 O       -12.7222474076        0.5434213226        4.9733513497
 C       -13.7548818092        2.7947038552        4.4318695304
 C       -13.3133434562        2.4049340342        2.8884652647
 C       -14.6106201444        2.3457740343        1.9385514798
 O       -15.6632799412        2.7300373326        2.2574487350
 C       -14.2948349433        2.1444162963        0.3271430784
 C       -13.2953728981        1.1189503488       -0.1673629179
 O       -12.4259666242        1.4745077363       -0.9323157840
 C       -13.4024891643       -0.3243926000        0.3713975454
 C       -12.0509725091       -1.0700701917        0.0660049467
 C       -10.8217189734       -0.3106643293        0.6215762540
 O       -11.1402136802        0.7714633176        1.1179747977
 C        -9.2871311730       -0.8272694322        0.5118866704
 C        -8.3257540180        0.3252829677        0.6501968923
 O        -8.5130281520        1.3916745839        0.0953919818
 C        -7.0610797605        0.1798178631        1.6899063570
 C        -8.9529773669       -1.8660897172        1.5990186518
 C        -9.0983589096       -1.3302315712       -0.9207776654
 C       -15.5851377578        1.8476059351       -0.4755399045
 C       -13.7591259491        3.6094049597       -0.0600199749
 C       -11.9101222138        1.0937046397        7.4241537469
 C       -13.5277784471        3.0604933667        7.6128597609
 C        -8.7502558330        6.3202751328        3.4496602541
 C       -11.1210316254        5.1692271500        3.7909167955
 C        -7.5581163755        3.0001398247       -3.1809823538
 C        -5.7445709477        4.0430163705       -1.7996868193
 C        -3.0346455322        7.0672619345       -6.3588810181
 C        -4.7703852402        8.4523876902       -4.9966930518
 H        -4.6551183852        7.0066125056       -8.9519404406
 H        -3.2803160596        8.1368192841       -8.7405934497
 H        -4.8043945116        8.5344721426       -9.7266870477
 H        -7.6346846500        6.2948984847       -6.8357772131
 H        -7.2296327711        7.2999835048       -5.4444864609
 H        -7.1556016618        4.2779031222       -5.3948820311
 H        -8.4725244371        5.2746126321       -4.8700738964
 H        -7.8776666651        6.5880040490       -0.6111096958
 H        -7.1725182853        5.2996461916        0.3217204287
 H       -10.2862648567        5.8623218480       -0.2576101330
 H        -9.4215840220        6.6540401950        1.0465121637
 H        -9.3219507982        4.9678412004        5.8057682981
 H        -7.9576212523        4.0848224022        6.0170439833
 H        -9.4034168485        2.6390225354        7.1917713505
 H        -9.8217504495        2.0416590504        5.5311646696
 H       -13.3788350365        3.8494061124        4.5948486604
 H       -14.7931885714        2.9435241910        4.4047575741
 H       -13.0743279488        1.3549033581        2.9124877013
 H       -12.5573363295        3.0546619699        2.5710829994
 H       -14.2545915306       -0.9352502456       -0.2078474467
 H       -13.5176793049       -0.3130088574        1.5010860951
 H       -11.9822726297       -1.2792931184       -1.0155682823
 H       -12.2114943464       -2.1507108500        0.4038366284
 H        -6.6652053574       -0.7680308686        1.2691802880
 H        -7.2942103397        0.1146004244        2.6954938235
 H        -6.4123228633        1.0246423143        1.4923354735
 H        -9.6251893387       -2.7352833326        1.6821674218
 H        -8.9471253905       -1.4415009170        2.5905818469
 H        -7.9584829556       -2.2572688172        1.5187470418
 H        -9.4247893832       -2.2806083513       -1.2203262812
 H        -8.0241568652       -1.2095520078       -1.2888743474
 H        -9.5580705667       -0.5065147685       -1.3661059340
 H       -16.2325557873        1.6368977875        0.4172915917
 H       -15.6634501244        0.8155800808       -0.9288424881
 H       -15.9627383348        2.4794008696       -1.2033644174
 H       -13.1703741789        3.4563248531       -0.8875406705
 H       -13.3088983227        4.1419295378        0.7261080093
 H       -14.7031535504        4.0831306676       -0.2209533395
 H       -11.5769756311        1.4050605164        8.4312582025
 H       -11.2158823570        0.4692624481        6.9988316540
 H       -12.7949480140        0.4684049610        7.4248805681
 H       -13.3934474148        2.7894812298        8.6824267350
 H       -14.5936388382        2.7559637403        7.5426203086
 H       -13.4469025234        4.1198186861        7.2967273320
 H        -7.7285784764        6.1197013068        2.9787211292
 H        -8.5843983623        6.5895292160        4.5013309556
 H        -9.1200537673        7.2689371419        3.0233449966
 H       -11.0902719126        5.5197307497        4.8154568425
 H       -11.6677121172        4.2010902783        3.8747333359
 H       -11.6868197422        5.8667503333        3.0559566321
 H        -8.6356424248        2.9099828190       -3.2721037251
 H        -7.0573177876        2.1779802256       -2.6172948891
 H        -7.0767866038        2.8490748299       -4.1606955625
 H        -4.9053818943        4.2716521707       -2.4138055660
 H        -5.6220530184        3.0018754331       -1.6795953139
 H        -5.7643116318        4.4981050930       -0.7683140890
 H        -3.1130244746        6.3415544878       -5.5423162485
 H        -2.3810775091        7.8509601740       -6.0088002794
 H        -2.6831126199        6.5940424498       -7.2920483613
 H        -4.6412228559        7.8414731227       -4.0870000281
 H        -5.8342679753        8.6152934420       -4.9888500627
 H        -4.1896780197        9.3644386134       -4.8421647469
 Na      -10.3546927793        2.5650554502       -0.7350053622
