117

 C        -3.9741619263        7.9247160126       -9.1196417755
 C        -4.9882933146        8.1012168791       -7.8827439592
 O        -5.9989836159        8.7423251614       -7.9727118559
 C        -4.5884498476        7.5448070790       -6.5321860886
 C        -5.6799009864        6.3694485815       -6.3937809176
 O        -5.3407599063        5.3737644743       -7.0237621607
 C        -7.0892598210        6.4939747575       -5.8224261626
 C        -7.2572966349        5.2438656160       -5.0031074520
 C        -6.8737756613        5.4745450647       -3.5057168715
 O        -6.6223102274        6.4977413082       -2.9316847761
 C        -7.1144626929        4.1172629305       -2.3781476505
 C        -8.2987772546        4.4432261951       -1.4256436074
 O        -9.4448684150        4.3204915619       -1.8490158578
 C        -8.0945778279        5.3716688804       -0.3140880436
 C        -9.2727223902        5.8926825923        0.5081959952
 C        -9.8469807924        4.9387205348        1.6078286908
 O       -10.4637435879        3.9581493886        1.3631856997
 C        -9.6829778384        5.3757152485        3.1118099155
 C        -9.1027908588        3.8985377593        3.9123835157
 O        -8.5630202412        2.9905443872        3.3227702419
 C        -9.0822303097        3.8491326637        5.4401821967
 C        -9.9380188845        2.7513733726        6.1462695271
 C       -11.3333466876        3.3647435834        6.7728009891
 O       -11.5435403475        4.5360774987        6.9275187361
 C       -12.5138020867        2.2545985453        6.8717778149
 C       -12.7149960431        1.8344588962        5.2313198056
 O       -12.1965951545        0.7854182167        4.8602723550
 C       -13.6097064437        2.6426405657        4.2866484804
 C       -13.4028820333        2.2787681138        2.8608396756
 C       -14.4982644097        2.5745349259        1.9059482131
 O       -15.5854951970        2.9664820252        2.2644969018
 C       -14.1784151939        2.3527131238        0.3232923743
 C       -13.1842772661        1.3246839438       -0.0690139044
 O       -12.3218545892        1.5382826641       -0.9627100866
 C       -13.3382067718       -0.1752624633        0.3920782706
 C       -11.9526884850       -0.9619244940        0.2069267397
 C       -10.8194805308       -0.1718638083        0.7614017312
 O       -11.0467626323        0.8587964274        1.3288531727
 C        -9.3490441328       -0.7619119921        0.6914079843
 C        -8.1842816080        0.3544033819        0.6668491484
 O        -8.3085069700        1.3100092162       -0.1069402214
 C        -7.0205909657        0.0484799406        1.5527588282
 C        -9.4746145448       -1.8735286400        1.8456171371
 C        -9.1137405908       -1.6301326907       -0.6556369975
 C       -15.4864657730        1.9478148588       -0.3332563181
 C       -13.8380121171        3.7606240800       -0.2167142211
 C       -12.0034309337        1.0785841330        7.7645517984
 C       -13.7511469067        2.9173678003        7.2980129265
 C        -8.6921970871        6.4806241802        3.5249150259
 C       -11.1653556462        5.8003936733        3.3682009044
 C        -7.3923702528        2.7841142009       -3.1690647141
 C        -5.7827960403        3.9550777696       -1.5843848755
 C        -3.0941040418        6.9743128538       -6.5599641654
 C        -4.5581974340        8.5563387676       -5.4333776869
 H        -3.6612850011        6.9470752008       -9.3946236133
 H        -3.1178810470        8.4225174914       -8.7741282444
 H        -4.4355454882        8.4787816310       -9.9956441230
 H        -7.8531272079        6.7035566934       -6.5227294543
 H        -7.0158616692        7.3181444174       -5.0545201766
 H        -6.5522800731        4.5008385745       -5.3118430709
 H        -8.2559845628        4.6571768284       -4.9590031427
 H        -7.6117160120        6.2270807627       -0.7734589550
 H        -7.3914651779        5.0210136395        0.4035495743
 H       -10.0542945874        6.0600173623       -0.1842682107
 H        -9.1525246184        6.8470124990        1.0709201739
 H        -9.2850109287        4.8460201862        6.0643806287
 H        -8.0923839945        3.7467332824        5.8006458365
 H        -9.3512215584        2.5587046004        7.0453443040
 H       -10.3631514185        1.8935619926        5.5178921282
 H       -13.7369654266        3.6689981492        4.4789722427
 H       -14.6804905455        2.2370680269        4.4137086569
 H       -13.3748061190        1.1880479785        3.0137695627
 H       -12.4791994949        2.7471357688        2.3962961081
 H       -13.9651273308       -0.6135621658       -0.2901210977
 H       -13.7493430400       -0.2787874711        1.3802541151
 H       -11.8329770915       -1.0753945107       -0.8803510691
 H       -11.9845156938       -1.9746579090        0.4728630472
 H        -6.5962884861       -0.9394214871        1.3490736780
 H        -7.6914027930        0.0159341346        2.4574738785
 H        -6.3659804996        0.9113767835        1.7106212846
 H       -10.2996463072       -2.5436390562        1.7002204183
 H        -9.7044408033       -1.3801189729        2.7945446870
 H        -8.6270619288       -2.5000969254        2.1322027538
 H        -9.9376638699       -2.3263726853       -0.8416604316
 H        -8.2523335532       -2.2899103136       -0.5399702097
 H        -8.9294540337       -0.9419505985       -1.5138449728
 H       -16.2362871602        1.5595307400        0.2843200266
 H       -15.4205752726        1.2951452479       -1.1552663220
 H       -15.7416815154        2.8636547089       -0.9575093714
 H       -13.8841416761        3.7506048094       -1.3419788082
 H       -12.7819009778        3.8129074705        0.1903340899
 H       -14.4146712369        4.4490146555        0.3748276982
 H       -11.7377693161        1.3408708648        8.7478447253
 H       -11.0662587158        0.5920234415        7.2228995956
 H       -12.7280801892        0.2462782731        7.7031320670
 H       -13.7015753668        3.3230366102        8.2998533990
 H       -14.3848142898        2.0802247863        7.5795494597
 H       -14.1996283816        3.5959975109        6.6206000086
 H        -7.6450808466        6.4029404081        3.3217515157
 H        -8.8957155144        6.6858870345        4.5593073695
 H        -9.0412405111        7.4261623417        3.1091052642
 H       -11.3307738742        6.0992910519        4.4047602198
 H       -11.8130175342        4.9947694994        3.2799111050
 H       -11.3099212351        6.6141000570        2.7696566194
 H        -8.0376828878        3.0990096777       -3.9828294252
 H        -7.8736070014        2.0749042874       -2.5331564590
 H        -6.6287099850        2.2060810536       -3.5371192808
 H        -5.0507564188        3.4238507277       -2.1884853655
 H        -5.9271289121        3.2604218078       -0.7172128623
 H        -5.5871324738        4.8370350188       -1.0795288788
 H        -2.6720831532        6.7738552591       -5.5849761979
 H        -2.5275540755        7.7117753187       -7.0632692241
 H        -3.1348690732        6.0605148371       -7.0977647938
 H        -4.0080723350        8.0341250428       -4.5511825680
 H        -5.5300891711        8.9982725064       -5.0538455403
 H        -3.8112882386        9.3297754060       -5.7393727077
 Na      -10.3545665384        2.6409602637       -0.4667337099
