117

 C        -3.9394975350        7.9838310014       -9.2309491410
 C        -4.9439176251        8.1229367801       -8.1462570524
 O        -6.0897446077        8.5165294817       -8.2586274357
 C        -4.4682865478        7.4225285177       -6.7212822179
 C        -5.5892091069        6.3129096699       -6.4534364455
 O        -5.4919349397        5.1795006721       -6.8596912623
 C        -6.8255882418        6.6256461174       -5.6183391910
 C        -7.2358760979        5.3159057081       -4.8698553279
 C        -7.0362094592        5.2583742364       -3.4211911692
 O        -6.6714858389        6.3100494187       -2.8898488250
 C        -7.1574932489        4.0854132707       -2.4444538330
 C        -8.3780755370        4.5340311652       -1.5248184503
 O        -9.4720011882        4.1616103329       -1.7274239719
 C        -7.9716815167        5.3359447879       -0.2145118845
 C        -9.1645633085        5.9316577137        0.4192748673
 C        -9.7973500835        5.0814200653        1.5829857516
 O       -10.4668383655        4.1006332419        1.2909547622
 C        -9.7577590750        5.3648645728        3.1871282246
 C        -9.2800941285        4.0024868483        3.9203504652
 O        -8.7250230969        3.1502456661        3.1890003781
 C        -9.2528922327        3.9652192637        5.4910660363
 C       -10.0457890066        2.8385464711        6.1372703269
 C       -11.4010348461        3.3413484437        6.6781550209
 O       -11.4550588092        4.5254131538        7.0348776978
 C       -12.5057269022        2.2159837944        6.7481583358
 C       -12.6450468441        1.6574078568        5.2989873909
 O       -11.8858610105        0.8540959619        4.7668661753
 C       -13.5605041700        2.4790316393        4.3782634625
 C       -13.2571044803        2.1929483847        2.8402957749
 C       -14.4324587843        2.5771524507        1.8977217191
 O       -15.4929553448        3.0048010882        2.1507369049
 C       -14.1719449361        2.4635768658        0.2340165445
 C       -13.1940987821        1.3646123851       -0.2021407572
 O       -12.3055284741        1.6996196012       -0.8918879256
 C       -13.2978225756       -0.0806486303        0.3804058169
 C       -11.9349432212       -0.8301383324        0.1710866330
 C       -10.7896127210        0.0083757764        0.8042480864
 O       -10.8247498205        1.0051916469        1.5192501776
 C        -9.4440832451       -0.8693740401        0.7252326562
 C        -8.3176745174        0.2148390277        0.7120804976
 O        -8.3947127704        1.2121584095       -0.0671162775
 C        -7.0515790043        0.0425368907        1.5553367762
 C        -9.5398391970       -1.7293889713        1.8670466904
 C        -9.1663633531       -1.8105868545       -0.4967597255
 C       -15.6956042257        2.0368800529       -0.2466873011
 C       -13.7168481231        3.8550513516       -0.2930822426
 C       -12.1130968688        1.1546852030        7.7305777474
 C       -13.8814188510        2.8363669928        7.2730048792
 C        -8.6868600645        6.4213361294        3.4290555301
 C       -11.1286854671        5.9934500351        3.5588327750
 C        -7.2597401561        2.6427376760       -3.1144590622
 C        -5.8059904846        3.9979370777       -1.5538916233
 C        -3.0737154960        6.7204746888       -6.5861238595
 C        -4.6831208925        8.6188861656       -5.6473816738
 H        -3.6154844245        6.8804112251       -9.2625626946
 H        -2.9947989463        8.5833060409       -9.0027386050
 H        -4.4448990283        8.2614530060      -10.0981133015
 H        -7.6116961679        6.7883126809       -6.3162895709
 H        -6.8091050538        7.4986433264       -4.8837775875
 H        -6.6635474159        4.4604445251       -5.2288994699
 H        -8.3490303698        5.0172473922       -5.0620700967
 H        -7.2246736107        6.0632113739       -0.3250055462
 H        -7.5954136893        4.6107795224        0.5716268764
 H        -9.8925705751        5.8361856940       -0.3336691612
 H        -9.1794046450        6.9088649186        0.7769718674
 H        -9.4789582774        4.9713788080        5.9877984477
 H        -8.2631034874        3.9168518822        5.8749176411
 H        -9.4255299165        2.4215012164        6.9837952963
 H       -10.4125725123        2.1902447414        5.3702128993
 H       -13.2156776892        3.5087923919        4.5756506258
 H       -14.6311756915        2.6023602781        4.5116078135
 H       -13.0625678352        1.1066620221        2.9576637366
 H       -12.4359434069        2.8135335971        2.4807340174
 H       -14.1145687642       -0.5211340520       -0.1523969355
 H       -13.6119048777       -0.1374123301        1.3972675869
 H       -11.8942088084       -1.3507695282       -0.8127879644
 H       -11.9434240753       -1.6568588805        0.8392534878
 H        -6.5260823757       -0.9129384185        1.2006171527
 H        -7.2627641245        0.0722629483        2.5490559838
 H        -6.5370349193        0.9685713386        1.3065213417
 H       -10.2911500519       -2.5517579027        1.7886912905
 H        -9.7604592977       -1.2419476489        2.8014221460
 H        -8.6290025010       -2.2546844433        2.1167452580
 H        -9.9795455620       -2.4241070492       -0.7616047362
 H        -8.2950950684       -2.5784120377       -0.2302547897
 H        -8.8638355244       -1.1908006636       -1.3607126009
 H       -16.1547211932        1.3264500059        0.4037809081
 H       -15.6442143208        1.6277096386       -1.2718569381
 H       -16.2488986430        2.8734274793       -0.5388647891
 H       -13.8932838303        3.8269169734       -1.3743841095
 H       -12.5799426584        3.8791331280       -0.0569887461
 H       -14.2462166431        4.6156676991        0.3275125587
 H       -12.0132099424        1.5824978659        8.7279764226
 H       -11.2624422545        0.5125856459        7.5084627216
 H       -13.0252540149        0.4786501426        7.7452971792
 H       -13.6992681871        3.4746314388        8.1428980985
 H       -14.4640846353        2.0818305625        7.7932377508
 H       -14.4001082127        3.4612256759        6.6285926119
 H        -7.6540475581        6.2170237436        3.1153866902
 H        -8.7588609238        6.7244699874        4.4116675573
 H        -8.9909313566        7.3163844258        2.8998672237
 H       -11.3097580891        6.0698080701        4.6313523386
 H       -11.8832252678        5.2956638976        3.3027367262
 H       -11.1072316518        7.0445386110        3.1753388143
 H        -7.3978676485        2.8109169899       -4.1827464516
 H        -8.0765548474        2.0032590349       -2.6879590110
 H        -6.4631100603        1.9490992063       -2.9975475862
 H        -5.2343198357        3.1934798270       -1.9113517799
 H        -6.0172163413        3.7571892942       -0.4870201719
 H        -5.3769549280        4.9977600410       -1.3701532302
 H        -2.7155596223        6.7517904958       -5.5173076036
 H        -2.3530721495        7.2036269503       -7.1773048660
 H        -3.2530351874        5.6634883088       -6.8243790945
 H        -4.6400623487        8.4339543925       -4.5362035778
 H        -5.6444859322        8.9730468103       -5.9452871082
 H        -4.0572280873        9.4420490357       -5.8504670823
 Na      -10.3269501541        2.5974908905       -0.3306189785
