117

 C        -3.7375474771        7.9147525400       -9.5274819270
 C        -4.9561981916        7.6218254844       -8.5131011353
 O        -6.0576395542        8.0006392979       -8.8101763758
 C        -4.6371684877        7.2642073470       -7.0313616752
 C        -5.6581100702        6.0925323595       -6.4612494949
 O        -5.3814943100        4.9479338929       -6.7447783328
 C        -6.6510109959        6.4910837697       -5.3480811347
 C        -7.5129226329        5.3986835070       -4.6186147200
 C        -7.0976642769        5.2522913163       -3.0656445960
 O        -6.7419986870        6.2851952039       -2.6000239083
 C        -7.0302758418        3.9488510081       -2.2206670463
 C        -8.3243029078        4.2398809927       -1.2359697567
 O        -9.4013646823        3.8429438438       -1.7382752903
 C        -7.9596196299        5.0667037433       -0.0713179650
 C        -9.1510666380        6.0052684524        0.4580194371
 C       -10.0045807526        5.3253769387        1.6108077378
 O       -10.6926324569        4.3435502275        1.3948254137
 C        -9.7134813427        5.6816077233        3.1024810514
 C        -9.3889974562        4.2990881774        3.7971530986
 O        -9.2240138776        3.2902686318        3.1844370102
 C        -9.3228473485        4.3642992058        5.4024544070
 C       -10.0220445912        3.0422155759        5.9664198674
 C       -11.3808448234        3.3051340568        6.7459787381
 O       -11.6936157244        4.3567254248        7.2168169426
 C       -12.5744954526        2.2408745236        6.6432466168
 C       -12.6640319370        1.6080491455        5.1698689219
 O       -11.6753097517        0.9482618657        4.8787364827
 C       -13.4419317795        2.2447320645        4.1053492116
 C       -12.9743773255        2.2429893069        2.6049294858
 C       -14.2659536261        2.7110286372        1.8810416477
 O       -15.2646173470        3.1399127898        2.4330174766
 C       -14.2729963526        2.6894184318        0.1928762834
 C       -13.2607993623        1.5903690006       -0.1644308632
 O       -12.3563601309        1.8680861916       -0.9950475430
 C       -13.3762361315        0.0672067057        0.1531853890
 C       -12.0850946955       -0.7510131077        0.1652620437
 C       -10.8412221767       -0.1723564714        0.9730526533
 O       -10.8183835464        0.9501599679        1.4352627330
 C        -9.4240837138       -0.9878667647        0.9902144140
 C        -8.2468967115        0.1107826115        0.7483097191
 O        -8.3910539889        1.0384200104        0.0390244905
 C        -6.9502416471       -0.1034364879        1.4637587431
 C        -9.2627932825       -1.6177543452        2.4444914405
 C        -9.4411013032       -1.8936592046       -0.2318698973
 C       -15.6334526495        2.3296375725       -0.2617993273
 C       -13.9232382119        4.1272195203       -0.3636792164
 C       -12.1696934436        1.0754765031        7.6409357414
 C       -13.8523974660        2.8770447593        7.0361715432
 C        -8.4469492649        6.6257982111        3.3415049420
 C       -11.0561125676        6.2762833816        3.7680492048
 C        -7.3828246951        2.7049234637       -3.0117615104
 C        -5.5750462675        3.8458958509       -1.5831540106
 C        -3.1055963864        6.7406776099       -6.8130313671
 C        -4.6797660967        8.5640081184       -6.2934495309
 H        -3.0542319423        7.1194090697       -9.5829491673
 H        -3.2370024777        8.7635653076       -9.0948471517
 H        -4.3250491489        8.2322626141      -10.4801718977
 H        -7.2631532507        7.3871424770       -5.6321402504
 H        -6.0506012282        6.8082864867       -4.5367797270
 H        -7.4795183721        4.4114958534       -5.1169342621
 H        -8.5351989266        5.6711347295       -4.6274790111
 H        -7.2361756557        5.8903009789       -0.4124583877
 H        -7.5159480234        4.5482155000        0.7570892876
 H        -9.8424777114        6.2391734457       -0.4090683778
 H        -8.7178985224        6.9786635426        0.9116801174
 H        -9.7161079139        5.3342185481        5.7910607192
 H        -8.3118247359        4.4789319029        5.7981591680
 H        -9.4234638194        2.6572465684        6.7179579919
 H       -10.1850149325        2.4200007324        5.0627131501
 H       -13.7511161068        3.2643867485        4.2961997597
 H       -14.4143483629        1.6886391025        4.1612668635
 H       -12.7890017119        1.2226918113        2.4567920038
 H       -12.1437150611        2.9218918275        2.4943245293
 H       -14.2681471524       -0.3520905685       -0.4212287493
 H       -13.7635389055       -0.0565677253        1.2516512271
 H       -11.7877791060       -0.8253702110       -0.8741554206
 H       -12.3248402485       -1.8457687307        0.3665790609
 H        -6.7937796929       -1.1207402304        1.3938092585
 H        -7.2228342915        0.2164461491        2.5434854612
 H        -6.1971083663        0.6003773010        1.1738430629
 H        -9.8909976112       -2.4579791874        2.5550953539
 H        -9.3543699871       -1.0634436036        3.3771637925
 H        -8.3093187253       -2.1461776995        2.5662764897
 H       -10.2120204250       -2.6914643677       -0.0185107792
 H        -8.5358391905       -2.3709149641       -0.2842298247
 H        -9.7151320276       -1.4471873933       -1.1855145603
 H       -15.6014047655        1.3087602693       -0.6376042827
 H       -15.9764843142        3.0441232465       -0.9746923263
 H       -16.5041613836        2.4479952442        0.5364319254
 H       -13.8152192380        3.8611889888       -1.3899637233
 H       -13.0532938942        4.4603873187        0.1182510674
 H       -14.7681355862        4.7294869769       -0.2660140347
 H       -11.8703773854        1.4373784063        8.6017399999
 H       -11.1862744463        0.8398251804        7.0913886264
 H       -12.7623452139        0.2205317980        7.8304629049
 H       -13.8702666827        3.4609069364        7.9567791344
 H       -14.6315439266        2.1047101376        7.1715464395
 H       -14.0679949598        3.7430024973        6.3497876253
 H        -7.6423435383        6.1520031835        2.7870385632
 H        -8.1846200049        6.6554187844        4.4571789360
 H        -8.4700707634        7.6460338102        2.8928124984
 H       -11.2011663218        6.1928191619        4.9056034821
 H       -11.8692214651        5.5630626224        3.4282347264
 H       -11.1180084557        7.3216081784        3.5625832997
 H        -6.6094404024        2.5188807358       -3.8141336106
 H        -8.4008539338        2.6740799202       -3.4555883656
 H        -7.4273268446        1.8000504071       -2.3789501160
 H        -4.8880266041        3.6964180483       -2.4829693202
 H        -5.4155117353        3.1479753596       -0.7821085019
 H        -5.4535622911        4.7422719238       -1.0399597284
 H        -2.8663511212        6.4580119811       -5.7947916574
 H        -2.3144382248        7.5161660761       -7.1031650640
 H        -3.0934345317        5.8128752549       -7.4093831704
 H        -4.6763244994        8.3553002404       -5.1917735748
 H        -5.4010339511        9.3214354795       -6.6203592410
 H        -3.7887712576        9.2251913558       -6.4121621475
 Na      -10.2076418044        2.4863373355       -0.1477773520
