117

 C       -11.4995813739       -0.2434072373        8.3030511974
 C        -9.9908315089       -0.0534848390        8.6617624108
 O        -9.5332228005        1.0070386438        8.9812884565
 C        -9.1407220313       -1.3656754373        8.4826255884
 C        -9.0451575188       -1.6369456266        6.9021816817
 O        -9.8006401783       -2.4219884317        6.3506044021
 C        -8.1348967618       -0.6784432338        6.0778715630
 C        -8.3086020343       -0.9373197100        4.6139239327
 C        -6.9373787103       -0.6675017096        3.7979081649
 O        -5.9528079207       -1.0765029392        4.3762339150
 C        -6.8140340755        0.0025119120        2.4087889859
 C        -7.3518056026        1.4844925649        2.5655443953
 O        -7.8212384304        1.9554710856        3.5641325714
 C        -7.0963556652        2.3776238386        1.3229090762
 C        -7.3565157943        3.8357031402        1.6808943646
 C        -8.6216389382        4.5198835429        1.0193558791
 O        -8.7086399431        4.4936216979       -0.1684096705
 C        -9.6394018701        5.3307669888        1.8479069996
 C       -10.9853070530        5.3497022158        1.0107015788
 O       -11.2932784957        6.2068974986        0.2290511009
 C       -11.9834922105        4.2158918930        1.1116960603
 C       -12.5834435276        3.7840513276       -0.1862193673
 C       -11.6601507940        3.1113593081       -1.2013234524
 O       -10.4930551264        2.8159045900       -0.9453812580
 C       -12.1841630635        2.7638126833       -2.6301086815
 C       -11.2220396951        3.2892368540       -3.6964660568
 O       -10.4825110544        4.2636944471       -3.5481369662
 C       -10.9980900398        2.5042325823       -5.0243584572
 C       -10.3805581533        3.3513089608       -6.0581715878
 C       -11.4172979767        4.2155375380       -6.6729000708
 O       -12.6000462512        4.0613285544       -6.4432288807
 C       -10.9983270533        5.5511947293       -7.3532628187
 C       -10.7802327018        6.6248144700       -6.0828010911
 O        -9.6692228965        6.6487630039       -5.6082187198
 C       -11.9228396058        7.5929331702       -5.6200884129
 C       -11.3826284808        8.7803646659       -4.7777848893
 C       -10.6528426110        8.2177542095       -3.5113107422
 O       -11.0532961942        7.1768351447       -2.9838523148
 C        -9.5637601560        9.0204939468       -2.7123951346
 C        -8.3554181749        8.1690322513       -2.3909290628
 O        -8.5892869158        7.1845546865       -1.6767442693
 C        -7.0398447147        8.3006231073       -3.1411473125
 C        -9.1363435099       10.3099177574       -3.4321728414
 C       -10.3453412576        9.2804748061       -1.3544942659
 C        -9.6995734526        5.7131645350       -8.2349445087
 C       -12.2824575012        6.0142466721       -8.1879144050
 C       -12.2432930259        1.2340219041       -2.6028396952
 C       -13.5669112571        3.5471039779       -3.0126912592
 C        -9.7833294336        4.7107147633        3.2548102698
 C        -9.0502284793        6.8583339264        2.0311813863
 C        -5.3376183392        0.1278797688        1.7433496975
 C        -7.6882837484       -0.8351711839        1.5152146875
 C        -7.7177361869       -1.1199159619        9.0599515834
 C        -9.7843619065       -2.5808946055        9.1567838739
 H       -11.9774394814       -0.7873298707        9.1174572655
 H       -11.5190667641       -0.7089293813        7.2614749067
 H       -12.1529975306        0.7047057846        8.2326810353
 H        -7.0932956206       -0.8638108551        6.3729407694
 H        -8.4580303415        0.3752874172        6.3408531872
 H        -9.0983421007       -0.2983927081        4.3493044485
 H        -8.5581460227       -1.9357820226        4.4430001978
 H        -7.7868693551        2.0641620224        0.5952570431
 H        -6.1138485275        2.2679511550        0.9268115533
 H        -6.5667223451        4.4172903676        1.1694199164
 H        -7.1967620095        3.9336621735        2.7209683988
 H       -12.8067758892        4.5004849905        1.7378225287
 H       -11.7206445337        3.3687527550        1.8138034838
 H       -13.0489592951        4.6555333503       -0.7023492705
 H       -13.4329116980        3.2040079813        0.0806540102
 H       -11.8865559337        1.8771754915       -5.3511211178
 H       -10.1850885774        1.8530841716       -4.6831286772
 H        -9.8984835923        2.7720291360       -6.9008243792
 H        -9.6432013840        4.0708079011       -5.5921627772
 H       -12.6404136106        6.9977543600       -5.0711346362
 H       -12.4633798894        8.0205843492       -6.4789701763
 H       -12.3482191054        9.3131140285       -4.5101859974
 H       -10.6498152181        9.3857563915       -5.4015496777
 H        -7.1792708795        8.1051077161       -4.1741630640
 H        -6.3037065946        7.6512942553       -2.6258924366
 H        -6.7339761550        9.3142564198       -3.0888273562
 H        -9.9972441072       11.0164223527       -3.6759942484
 H        -8.6182530160       10.1416354244       -4.2929944712
 H        -8.5053664293       10.9061150547       -2.7586257478
 H       -11.3628806569        8.8900562491       -1.5280427616
 H       -10.4842092554       10.3414633391       -1.1875857486
 H        -9.8669506591        8.7461304901       -0.6082055518
 H        -9.6273478176        4.9950078599       -9.0909052865
 H        -8.7681150153        5.6317206707       -7.7438505370
 H        -9.7387641289        6.6274951267       -8.7571368984
 H       -12.3556197571        5.4680320776       -9.1349801720
 H       -12.2359474708        7.0157558831       -8.5224925914
 H       -13.1594215544        5.8023440172       -7.5786407528
 H       -12.8581137826        0.9915300295       -1.7633633871
 H       -11.2402337075        0.8793484522       -2.3165331919
 H       -12.4854523718        0.7851454476       -3.5631579814
 H       -13.2399859835        4.4202725288       -3.4067925248
 H       -14.3031822987        3.5914521762       -2.2611580891
 H       -13.9586134052        3.0266983434       -3.8915091103
 H        -9.2192784117        3.7713442372        3.3404594373
 H       -10.7286679840        4.5854320310        3.6462704780
 H        -9.3240734362        5.3702810560        4.0140959367
 H        -8.6261044548        7.3094314358        1.1699486908
 H        -8.4102454365        7.0093161739        2.8586286379
 H        -9.8870720275        7.4889597335        2.3010695113
 H        -4.7220601188       -0.7233865242        1.8435612090
 H        -4.7666216681        0.9117983351        2.2019607073
 H        -5.4096686956        0.3627618484        0.6774085611
 H        -8.5925233265       -1.0569021315        2.0819164776
 H        -7.2793141493       -1.7608224846        1.2503721208
 H        -7.9251254477       -0.3004246581        0.6130353934
 H        -7.2089430157       -0.2084608705        8.6488913721
 H        -7.0382128769       -1.9574525857        8.7552486553
 H        -7.9197472700       -0.9943602674       10.0877491780
 H       -10.6349383998       -3.0019427739        8.5675233160
 H       -10.1582754051       -2.3244752531       10.1577993001
 H        -9.0480726205       -3.3840337531        9.1724822342
 Na      -10.1242788339        5.5374115947       -1.5929776165
