117

 C        -3.8097052989        7.4877352594       -9.8540585782
 C        -5.0536081267        7.1634211967       -8.8781923471
 O        -6.1134809470        6.7259579397       -9.2271002474
 C        -4.6322161508        7.0925688488       -7.3173263364
 C        -5.6717617703        6.1476118758       -6.4988292937
 O        -5.4559161987        4.9860478619       -6.6046374868
 C        -6.4708644763        6.6325442901       -5.2503662107
 C        -6.8522693322        5.3614648577       -4.4304871771
 C        -6.8344643734        5.3931800314       -2.8700775217
 O        -6.6790455386        6.4592039939       -2.3254630346
 C        -6.9464572025        3.9428901723       -2.2362626499
 C        -8.1043036175        4.1234984637       -1.1422657084
 O        -9.1937825266        3.5985723826       -1.3707895376
 C        -7.8608959080        4.8514608772        0.1268785506
 C        -9.1093903994        5.8101594752        0.3887616575
 C        -9.9108797142        5.3966345576        1.5906566532
 O       -10.9786660254        4.7599663188        1.3878896255
 C        -9.8330059778        5.8671377067        3.0475566921
 C        -9.6637973705        4.5716863759        3.9445251575
 O        -9.7613931347        3.5692809795        3.3943250364
 C        -9.2822332442        4.6698582887        5.5200963130
 C        -9.6892049913        3.3458517717        6.2176341607
 C       -11.3391568514        3.3949646094        6.5824950198
 O       -11.6523369229        4.4185460017        7.0764941620
 C       -12.4735193931        2.1567993919        6.5897613932
 C       -12.5059410917        1.7553704025        5.0284494914
 O       -11.7180990237        0.8938063590        4.7557429276
 C       -13.7228907341        2.2051629455        4.1187544106
 C       -13.2446946999        2.6061472497        2.7000113281
 C       -14.3974673320        2.9547921721        1.7354376862
 O       -15.4046834719        3.5137385014        2.1941347981
 C       -14.1853384006        2.8066816831        0.2768027228
 C       -13.0915303551        1.7784007584       -0.1760767599
 O       -12.2754382691        2.1186357544       -0.9891304384
 C       -13.2691245857        0.2617289318        0.0851625943
 C       -11.9412310948       -0.6142975710       -0.0067251404
 C       -10.8004008723       -0.2573791731        0.8590416474
 O       -10.7014739955        0.7896317842        1.5152126042
 C        -9.6147650076       -1.0422250122        1.1118768480
 C        -8.3512538185       -0.1269165030        0.7856962821
 O        -8.4842767156        0.8738581609        0.1783468307
 C        -7.0031685985       -0.5618745745        1.2651352497
 C        -9.6647069896       -1.3157054717        2.7047295281
 C        -9.3440208849       -2.3530116439        0.2906940145
 C       -15.5489003029        2.2407858426       -0.2521787709
 C       -13.7728442719        4.1639765379       -0.2532767583
 C       -11.8194249062        1.0057380789        7.5374544997
 C       -13.7862067915        2.7703135439        7.0584099407
 C        -8.4866498429        6.6462814247        3.1716052419
 C       -11.0130460203        6.7451257537        3.5224783361
 C        -7.5472238363        2.9857704698       -3.2140688472
 C        -5.5522495124        3.5480697995       -1.5045946256
 C        -3.2098829345        6.4532592357       -7.0494752616
 C        -4.7639398859        8.4865923213       -6.8439269000
 H        -3.4766741876        6.4658952140       -9.9793536402
 H        -3.0490203361        8.1643523623       -9.4456788279
 H        -4.2863710033        7.9065441500      -10.8920455310
 H        -7.4149477605        7.2409559018       -5.5908678901
 H        -5.8264777411        7.3411795966       -4.7934182369
 H        -6.2782408137        4.4354762181       -4.9064702325
 H        -7.7839005793        5.1005107407       -4.8010617970
 H        -7.1496201897        5.6996381838       -0.0695585304
 H        -7.5240564823        4.3067701341        0.9943478316
 H        -9.7200709910        5.8175716918       -0.4615109232
 H        -8.7189635820        6.7651550789        0.5004985651
 H        -9.8682366010        5.3905677361        5.9343734939
 H        -8.2426772773        5.1289580903        5.6413442478
 H        -9.2433881692        3.3730162060        7.2354451020
 H        -9.4317651466        2.5876366957        5.5010521662
 H       -14.1101643664        3.1794492114        4.5198679820
 H       -14.5359495264        1.5342273305        4.1425057871
 H       -12.7627778392        1.6694517689        2.4261333489
 H       -12.5039232282        3.4369226509        2.7521419811
 H       -14.0218324008       -0.1523212937       -0.6717118400
 H       -13.8428618417        0.0085702286        0.9764945292
 H       -11.6912402937       -0.6598049048       -1.0226452615
 H       -12.3792657191       -1.6697206288        0.1838292815
 H        -7.0283278561       -1.5595349382        1.0752848795
 H        -6.6226146001       -0.2391599050        2.3053685811
 H        -6.4129389749       -0.0978386078        0.4768594519
 H       -10.5270995165       -1.6299239724        3.2612246239
 H        -9.3695501378       -0.3616888841        3.1508784164
 H        -8.8898475108       -1.9940835512        3.0814392916
 H       -10.2373364349       -3.1263494040        0.2784491173
 H        -8.5093361142       -2.8061740018        0.6647852584
 H        -9.2520047445       -2.1344031681       -0.7949555049
 H       -15.7384439102        2.2291237233       -1.3225546370
 H       -16.2699152391        2.7677824889        0.2971368088
 H       -15.5422509058        1.1484422750        0.0017839292
 H       -14.0122016404        4.3412740220       -1.3494434593
 H       -12.7680605305        4.1646336137        0.1070721445
 H       -14.4791665775        4.7918565252        0.3460544700
 H       -11.8825005296        1.3626175914        8.5902516292
 H       -10.8119669096        0.7342673850        7.1871303500
 H       -12.4278239132        0.1692606555        7.6756142419
 H       -13.8697218731        2.9535289357        8.0990709189
 H       -14.5774734035        2.1765549338        6.6347896325
 H       -13.9090606022        3.8465059755        6.6732968453
 H        -7.7118738386        5.9950355665        2.9318049666
 H        -8.4187609149        7.0057990668        4.2098551802
 H        -8.4066509584        7.4247005217        2.4741984731
 H       -10.5713972129        7.4521723325        4.2126123709
 H       -11.9489153868        6.2104992828        3.8246418170
 H       -11.2899287154        7.3994007740        2.6789702289
 H        -6.6917226609        2.3852407606       -3.5573479429
 H        -7.9622381260        3.3241128526       -4.1149836226
 H        -8.0742877904        2.1052491545       -2.7076718389
 H        -4.6872333207        3.7675812770       -2.1932217772
 H        -5.6672701732        2.5217091193       -1.2304716556
 H        -5.3079515415        4.0694654854       -0.5474098830
 H        -3.0839213187        6.5978692567       -6.0179980965
 H        -2.2963965849        6.9358101787       -7.4590204340
 H        -3.2296770120        5.4110191067       -7.2952753895
 H        -4.3067519792        8.6281021739       -5.9275524291
 H        -5.7275869786        8.9019940628       -6.8022264301
 H        -4.3639363217        9.1878897391       -7.5042240053
 Na      -10.4873201992        2.7295742836        0.3744660070
