117

 C        -4.4075128086        6.7998272546      -10.4578635547
 C        -5.1181483848        6.1175124860       -9.2987885462
 O        -5.7797277617        5.0883253621       -9.2893205308
 C        -4.6754654065        6.7369394337       -7.7297259776
 C        -5.2604409681        5.8748164763       -6.6136166457
 O        -5.6363081887        4.7318719511       -6.7117570166
 C        -5.5109531463        6.3394602939       -4.9799955362
 C        -6.6807037429        5.4713841970       -4.3305223308
 C        -6.6618286082        5.4264671818       -2.7972525389
 O        -6.6069958066        6.4092573769       -2.1074848824
 C        -6.9175932954        3.9698447813       -2.0132166614
 C        -7.9702495082        4.0868576154       -0.9144538086
 O        -8.8922027579        3.2895101529       -0.7587275592
 C        -7.7283697665        5.1499288758        0.1508794583
 C        -8.8168788358        6.2332691639        0.2885235701
 C        -9.9877361907        5.9184099473        1.4107292097
 O       -11.0980016971        5.6543819805        1.0204939885
 C        -9.6662718155        6.1710371163        2.9785210892
 C        -9.8488999155        4.8468818720        3.7579890511
 O       -10.2510081475        3.7931110264        3.1659163703
 C        -9.3329810136        4.7679839276        5.2415388925
 C       -10.0627599815        3.6842325506        6.0350476143
 C       -11.5586529740        3.7614074086        6.3992650523
 O       -12.2080206045        4.7763055688        6.4147805580
 C       -12.1992787027        2.2766521757        6.5148345179
 C       -12.4871152361        2.0729458972        5.0165948556
 O       -11.9189494706        1.2579454008        4.2347229596
 C       -13.4733969480        3.0250738847        4.3284968807
 C       -13.3223636643        2.6424556387        2.7890250901
 C       -14.6460013807        2.9749603157        1.9219088759
 O       -15.7045167732        3.2740374562        2.2769931882
 C       -14.3633217042        2.8557191808        0.2580505440
 C       -12.9658043583        1.9394376777       -0.1569056799
 O       -11.7588111281        2.3082017809       -0.2119185366
 C       -13.2249699304        0.3904553348       -0.3540793038
 C       -12.0517372996       -0.5388653391        0.0117059589
 C       -11.1481621308       -0.1341090123        1.1536933664
 O       -11.2322075612        0.7957950771        1.9340528201
 C        -9.9217376790       -1.1386485430        1.3479284945
 C        -8.5673416377       -0.3942961421        1.0189431067
 O        -8.3931761125        0.8086613838        1.1542093649
 C        -7.2622715699       -1.1896370860        0.5787225559
 C        -9.5787667793       -1.1226486158        2.9741159369
 C       -10.0840380906       -2.5042187791        0.7038767730
 C       -15.6551003016        2.2391412460       -0.3945167457
 C       -14.1333678732        4.2633569469       -0.2774727683
 C       -11.3100462134        1.2813029686        7.3788703354
 C       -13.4402462747        2.2888273521        7.3455212318
 C        -8.2639557256        6.7174746678        3.0746920959
 C       -10.6677596056        7.2057409593        3.5201142565
 C        -7.2414166113        2.7118291457       -3.1529369605
 C        -5.5926341882        3.4018306600       -1.3694156070
 C        -3.0837033188        6.7135088448       -7.5939386211
 C        -5.0669122065        8.2088384982       -7.7097497243
 H        -3.4746949922        6.0833251295      -10.5848448375
 H        -4.0576789811        7.8183079568      -10.0147902624
 H        -5.0125573650        6.9549765090      -11.2893439887
 H        -5.5215357313        7.3554758677       -4.5664098758
 H        -4.5019271472        6.0789189501       -4.5396320255
 H        -6.5140941067        4.4532391364       -4.7557703707
 H        -7.7062097906        5.5694545735       -4.7057143856
 H        -6.7301975433        5.6458274263        0.0425803511
 H        -7.7070527426        4.6971624047        1.1426653381
 H        -9.2624672040        6.3681973674       -0.6498545158
 H        -8.3859345834        7.1862730435        0.5138765569
 H        -9.5309141464        5.8544684742        5.7201083102
 H        -8.3379894661        4.5614590710        5.2753090373
 H        -9.4886656272        3.6954682692        6.9146666972
 H        -9.8344417137        2.7569501484        5.4708451146
 H       -13.2875879646        4.0573868145        4.3213318873
 H       -14.5042773240        2.8166600339        4.6997788922
 H       -12.9429982875        1.6697285645        2.5169885111
 H       -12.5052339511        3.3061921156        2.4252020622
 H       -13.4529682901        0.1528748614       -1.4246265474
 H       -14.1393319873        0.0184533843        0.3314024780
 H       -11.5323377095       -0.4025381026       -0.9641085111
 H       -12.4080363368       -1.5623085313        0.1733863370
 H        -7.2365650768       -2.1812558683       -0.0117029581
 H        -6.7569342926       -1.3202756042        1.4859678419
 H        -6.7695863794       -0.5557461104       -0.1396663534
 H       -10.3104231875       -1.7275610717        3.4936084453
 H        -9.3914109203       -0.3507954869        3.6936395153
 H        -8.7193772767       -1.7979980907        2.9336690912
 H       -10.8645426183       -2.9908326253        1.1624720565
 H        -9.1401113347       -3.2030147529        0.9024797324
 H       -10.1840520338       -2.4744427473       -0.4001889356
 H       -16.4089347804        2.9231919984       -0.1313767539
 H       -16.0869984145        1.3426203729        0.0590761679
 H       -15.4376497387        2.2055582775       -1.4055227409
 H       -13.8088768521        4.0219931334       -1.2961210634
 H       -13.2053233069        4.6384870651        0.2689222520
 H       -15.1282520068        4.6718044277       -0.2587562944
 H       -10.6352745487        1.8813669738        7.9253540126
 H       -10.7347501093        0.7643413764        6.6333797045
 H       -11.8169498872        0.4764845791        7.9486679540
 H       -13.1232722908        2.4783095230        8.3609390337
 H       -13.9733024337        1.3383703496        7.2750589087
 H       -14.1145558024        2.9534590371        6.9572883640
 H        -7.6156670728        5.8711046330        2.9007738616
 H        -8.1543252110        6.9329639113        4.0838254083
 H        -8.0414425593        7.6261614588        2.5486140439
 H       -10.7473490242        7.2236481786        4.6171270170
 H       -11.5647525013        6.8941617188        3.0318790753
 H       -10.5964876471        8.1611279272        3.0022092344
 H        -7.5584350017        3.2016846227       -4.1089729621
 H        -8.1505827299        2.0964293865       -2.8539507005
 H        -6.4165444266        2.1893766366       -3.4857688775
 H        -4.8019662437        3.4169768961       -2.1238398938
 H        -5.7753554202        2.3196206639       -1.2065834077
 H        -5.1250972266        3.9508654938       -0.5716061160
 H        -2.7564258619        7.0779937863       -6.6281933636
 H        -2.6776356737        7.1929839072       -8.4289002606
 H        -2.6651952131        5.7240698036       -7.7179210460
 H        -4.9138032336        8.7393340762       -6.8381221134
 H        -6.0678597396        8.3545831104       -7.7415341277
 H        -4.5760648235        8.7094961832       -8.4289405733
 Na      -10.0310031796        2.6272535802        1.2024388179
