117

 C        -4.4299810649        6.6073345761      -10.4729045957
 C        -5.1868858789        5.8741103555       -9.2410059167
 O        -5.6667234124        4.7866240577       -9.3004971617
 C        -4.8152689902        6.4836889711       -7.7730224865
 C        -5.2405056435        5.4725988133       -6.5645612602
 O        -5.3846293608        4.2758914246       -6.8443034986
 C        -5.2492764357        5.9850234293       -5.1833167196
 C        -6.4241409412        5.4865430880       -4.3118403139
 C        -6.4960908327        5.3913166279       -2.7631698209
 O        -6.5453731596        6.4608293500       -2.1593204359
 C        -6.8147102833        3.9947176215       -2.0701925947
 C        -7.7871518068        4.2404067960       -0.8320967062
 O        -8.6028857088        3.3231099730       -0.6357152936
 C        -7.5700840798        5.2852122198        0.2259806048
 C        -8.7271208159        6.3899020071        0.1073909621
 C        -9.8054716071        6.1339250386        1.1385942179
 O       -11.0082974608        5.8057574256        0.9493591045
 C        -9.5580842360        6.3183349430        2.7298543213
 C        -9.7256416732        4.9509491533        3.6351772878
 O       -10.0775675259        3.9466677023        3.1429113035
 C        -9.7161141887        5.1206903958        5.1661162733
 C        -9.8995740155        3.7880370916        5.9911033151
 C       -11.4045811330        3.7662119357        6.2390245078
 O       -12.0568963308        4.8040408178        6.2071064119
 C       -12.2294419443        2.4939546952        6.3500165990
 C       -12.4729157118        2.0073027982        4.9989337502
 O       -11.9576530273        1.0332821284        4.5623512816
 C       -13.4021942610        2.8642401971        4.1704644685
 C       -13.3482945144        2.7676725706        2.6860128082
 C       -14.6002190928        2.9331069974        1.8958088182
 O       -15.7869430246        3.0348414000        2.2769960478
 C       -14.4442754354        2.9128685513        0.3784806991
 C       -13.1173030256        2.0738827296        0.1626589799
 O       -12.1291909512        2.7336637544        0.2462080240
 C       -13.2130306197        0.4469474138       -0.1766727518
 C       -12.0010257173       -0.6239454069        0.0757866702
 C       -11.1602811622       -0.2786711762        1.2325357282
 O       -11.3801944028        0.7434922548        1.9279446246
 C        -9.9848388508       -1.2003538363        1.5941890602
 C        -8.5981052096       -0.4401210751        1.0806144242
 O        -8.4046766142        0.7360822959        1.3837912749
 C        -7.5974333217       -1.0668748939        0.2286645040
 C        -9.8652386549       -1.4390292415        3.1023487772
 C       -10.1385354766       -2.6070104708        0.9414449403
 C       -15.6846031855        2.2256914340       -0.4491990747
 C       -14.1263664165        4.4615212011       -0.0875154134
 C       -11.3887045946        1.3352435176        7.0012198826
 C       -13.6856842013        2.6929271609        7.0932977708
 C        -8.0888899724        6.8333318486        3.1449539038
 C       -10.5711595416        7.3967393143        3.2778565886
 C        -7.4675657462        2.9848180340       -2.8814319512
 C        -5.4916574413        3.5620515148       -1.3382557292
 C        -3.3069677066        6.6044142204       -7.6254666821
 C        -5.6359981497        7.7564394821       -7.6445674572
 H        -3.5330417193        6.1164458865      -10.4762736753
 H        -4.4095809943        7.6538995270      -10.4528581153
 H        -5.0222751724        6.1691510221      -11.3233251960
 H        -5.1596152253        7.0872821964       -5.1967493400
 H        -4.3095199597        5.8159735918       -4.7430742019
 H        -6.6744054728        4.5174237447       -4.7553670599
 H        -7.3711158444        5.9732298433       -4.5548068787
 H        -6.5783906700        5.7212002915        0.2612847112
 H        -7.6790860677        4.7773501770        1.2176279038
 H        -9.1593278427        6.3420921582       -0.9464240776
 H        -8.2877790746        7.4562154776        0.2331055736
 H       -10.5067220522        5.7209148983        5.2671852781
 H        -8.7331179799        5.7321706565        5.4157862596
 H        -9.2874749010        3.5996403091        6.9610619627
 H        -9.5529977026        3.0212021031        5.2626904066
 H       -13.1329260830        3.9334246765        4.5632506403
 H       -14.4239342219        2.6101753245        4.3990089621
 H       -12.8907898523        1.8036084357        2.3865235674
 H       -12.5940789240        3.3812287668        2.1570741698
 H       -13.3813195457        0.4320930710       -1.2612766353
 H       -14.0187994561        0.0538834203        0.3380213054
 H       -11.4985973528       -0.5941647709       -0.8373578205
 H       -12.4704112468       -1.5949070711        0.3576706859
 H        -8.0462961399       -1.3305332872       -0.6525996254
 H        -7.1088434657       -2.0115449011        0.6451419242
 H        -7.0263137400       -0.2878211548       -0.2091212274
 H       -10.7893714992       -1.6655140358        3.6509406649
 H        -9.5080750325       -0.5284452169        3.5870181683
 H        -9.1301841598       -2.1978953351        3.3688220890
 H       -11.1109800527       -3.1253669706        1.1877968710
 H        -9.4040516394       -3.1466291983        1.4106319779
 H        -9.8467253363       -2.6738904898       -0.0647301992
 H       -16.4825706481        1.8969109010        0.2482608650
 H       -15.3579710104        1.2463836603       -0.8441056279
 H       -15.9662913404        2.9085152896       -1.3719299779
 H       -14.2954306280        4.5897861787       -1.1410900646
 H       -13.1505040769        4.4669185653        0.1969473393
 H       -14.7581736402        4.9728149152        0.5805184038
 H       -10.8092316896        1.7048350218        7.8188921174
 H       -10.6313456862        0.8854217885        6.2515504158
 H       -12.0344401341        0.5696831735        7.2184197555
 H       -13.6516072480        2.4642687977        8.1654013090
 H       -14.4948193091        2.2221847631        6.5446651550
 H       -13.9087124921        3.7822062303        6.8078904252
 H        -7.4563239738        6.0441262775        2.8360620862
 H        -7.8348783001        7.1219897366        4.2059324158
 H        -7.9569206244        7.7186900061        2.5640792815
 H       -10.1768883841        7.6096938604        4.2914746307
 H       -11.6291696298        6.9568738105        3.3669887106
 H       -10.7360971552        8.2278005595        2.6052398966
 H        -8.5854302992        3.0121401343       -2.8253614088
 H        -7.0724050568        2.0056898451       -2.5852618130
 H        -7.2559823126        3.1635380483       -3.9774209551
 H        -4.6425290685        3.4562818067       -2.0408148422
 H        -5.4887349857        2.5904056124       -0.8907468165
 H        -5.2504614311        4.4170801085       -0.6793422865
 H        -3.1250244489        6.9576502642       -6.6189755185
 H        -2.7190295437        7.0990534071       -8.4759241524
 H        -2.9023936294        5.5856268055       -7.5268312212
 H        -5.0349197337        8.7032885765       -7.1796611942
 H        -6.4372659749        7.7319983253       -6.8508565342
 H        -5.9589484098        8.2353860065       -8.6256053336
 Na       -9.8519641339        2.6061705455        1.2902805108
