117

 C        -4.5426680741        6.4414006271      -10.4079739725
 C        -5.0109936103        5.6562134262       -9.2223539407
 O        -5.7412651006        4.6943350969       -9.3306241619
 C        -4.8570439390        6.3592620373       -7.7522673391
 C        -5.1690715300        5.2447114312       -6.6838606047
 O        -5.3272102516        4.0910486650       -6.7904778378
 C        -5.1867649635        5.8920519410       -5.0780296854
 C        -6.4663807752        5.3753981292       -4.4194041203
 C        -6.5624560182        5.5388606947       -2.8374274493
 O        -6.3823551154        6.5149326599       -2.1580192758
 C        -6.8048450310        4.0790661160       -2.0433512705
 C        -7.6650653657        4.2392095113       -0.7107366679
 O        -8.5343894891        3.3548220408       -0.5087898050
 C        -7.4873013864        5.3553746800        0.2002236668
 C        -8.7471861255        6.3377452084        0.1891390738
 C        -9.7192352336        6.0798025838        1.2844535573
 O       -10.8758268945        5.8620420533        0.8485966465
 C        -9.4646887006        6.4361614382        2.7981308007
 C        -9.7517451429        5.1348509642        3.6270178672
 O        -9.8908165465        4.0530018721        3.0788458531
 C        -9.6588678510        5.2484842194        5.0912464908
 C        -9.9576419604        3.9521256673        5.8311592067
 C       -11.4315472894        3.8925713869        6.2291401245
 O       -12.0121817196        4.9543343668        6.2204194260
 C       -12.2497913070        2.5265327067        6.4441904169
 C       -12.5141617949        1.9706738365        4.9201840663
 O       -12.0993143868        0.8905274955        4.4616724846
 C       -13.7465018902        2.8218518463        4.0962509864
 C       -13.4289287983        2.7925227009        2.6537612087
 C       -14.6592322896        2.8269158317        1.8438406638
 O       -15.6953812504        2.8930154456        2.3588315970
 C       -14.3970027880        2.8407647230        0.1853007309
 C       -13.0567949293        2.0936710284       -0.0440327952
 O       -12.0607053717        2.7177036449        0.3079503350
 C       -13.2214671859        0.6026904650       -0.0352641195
 C       -12.0154841800       -0.4204421775        0.0606402335
 C       -11.2320190267       -0.2957606694        1.2877090173
 O       -11.2277955807        0.7112429077        2.0133360702
 C        -9.9195792030       -1.2173860580        1.6558445027
 C        -8.7172116064       -0.4824647715        1.0764764104
 O        -8.5286271573        0.5991480947        1.5527344012
 C        -7.8152970907       -1.2011393758        0.0690950352
 C        -9.9981224770       -1.2971027206        3.2502879409
 C        -9.9830648005       -2.7300636940        0.8503315180
 C       -15.7930759489        2.4121977974       -0.4094555447
 C       -14.2008607874        4.3789598900       -0.0283974204
 C       -11.4605516721        1.3596098484        7.1672179993
 C       -13.4924596367        2.8388859086        7.1368117251
 C        -8.0180471935        6.8745377337        3.0647992124
 C       -10.5422856491        7.4749892810        3.0957243497
 C        -7.5428678038        2.9065484378       -2.8806434753
 C        -5.3697045728        3.7514406885       -1.4568483998
 C        -3.3284456159        6.6566563681       -7.5916219547
 C        -5.8871727574        7.4909330416       -7.5906541011
 H        -3.4771265996        6.3608813810      -10.5769197264
 H        -4.8708955240        7.3606327571       -9.9840949006
 H        -5.0521014816        6.2219754200      -11.2411672151
 H        -4.8889041228        6.9638251122       -4.8702005472
 H        -4.4151450903        5.4328104531       -4.5346958770
 H        -6.5338413808        4.2404544603       -4.7234953185
 H        -7.3549879839        5.7032734850       -4.8062800537
 H        -6.5941937150        5.9343701418       -0.1676550691
 H        -7.2329266240        5.0541122579        1.1748843909
 H        -9.2921025743        6.2145444334       -0.6915245766
 H        -8.3352126466        7.3806476302        0.1925620868
 H       -10.4042680110        6.0048599826        5.3609515199
 H        -8.6546514670        5.6494561243        5.2177756256
 H        -9.4668993209        3.9057244586        6.8634763267
 H        -9.4228099791        3.1530061535        5.2173730658
 H       -13.6120985724        3.8153263991        4.5619422911
 H       -14.7521423507        2.3535125599        4.2385393301
 H       -12.7597044953        1.9118985079        2.4440677218
 H       -12.6834795438        3.5152505135        2.2910240932
 H       -13.7404369996        0.3833634122       -0.8519405324
 H       -13.7535811394        0.3881244014        0.8720414626
 H       -11.3799403505       -0.1589665013       -0.7199469299
 H       -12.4817975061       -1.4454340328       -0.0379576533
 H        -8.2572963913       -1.1080655014       -0.9761396194
 H        -7.7011612481       -2.2601491008        0.2851796925
 H        -6.9691393566       -0.6268811244       -0.1613861813
 H       -10.9306369033       -1.6938319876        3.6222528833
 H        -9.9086872805       -0.2962368734        3.6789010195
 H        -9.1694522175       -1.8490527073        3.7314051146
 H       -10.7866933307       -3.3076512569        1.1357558607
 H        -9.0130816604       -3.3673948211        0.8907643367
 H       -10.0390890569       -2.5417116990       -0.2208134343
 H       -16.3849585401        2.0101234443        0.4167070843
 H       -15.6436559111        1.5326746309       -1.0935128959
 H       -16.2513772039        3.2458173002       -1.0089153818
 H       -14.2687868825        4.6385355607       -1.0599703845
 H       -13.2221667813        4.4517473757        0.4562342092
 H       -14.9181559995        4.7195214781        0.6371147960
 H       -11.2197219973        1.6396101407        8.1788166811
 H       -10.4419198164        1.2798432718        6.6507847203
 H       -11.9631634891        0.3503363036        7.0562356751
 H       -13.3905799499        2.4738622576        8.1694716236
 H       -14.2704218883        2.2517113802        6.5906362706
 H       -13.8504862287        3.8613615298        7.0260205470
 H        -7.3839641884        6.0386536670        2.7357377531
 H        -7.7395692431        7.1309974454        4.1269733071
 H        -7.9022988812        7.8122036233        2.4643577941
 H       -10.3900363917        8.0488180955        4.0272643383
 H       -11.4753561360        6.9420761588        3.1451497257
 H       -10.6304405686        8.0742775215        2.2438214453
 H        -8.6111692102        2.8164694305       -2.5929971542
 H        -6.9682936593        1.9890498118       -2.7372400810
 H        -7.5310201849        3.0828526685       -3.8709424755
 H        -4.7935469103        3.1936158915       -2.2402059051
 H        -5.4982767947        2.8961591997       -0.8110378273
 H        -4.7958421556        4.5279696185       -0.9866962535
 H        -3.0443779411        6.8103677676       -6.5679772740
 H        -3.0019339087        7.4126940004       -8.3604115115
 H        -2.7786426572        5.7112929834       -7.8390851287
 H        -5.3766853998        8.4719140671       -7.2177577953
 H        -6.7137126332        7.4453974908       -6.8181749942
 H        -6.1735684531        7.8799957476       -8.6029576690
 Na       -9.8798575153        2.6758608417        1.2454861649
