117

 C        -4.5408532287        5.6421723868      -10.1940608414
 C        -5.2641806819        4.9362788091       -9.0144309459
 O        -5.8613847476        3.8861508937       -9.1457785223
 C        -5.2547933047        5.7277979847       -7.6352019567
 C        -5.1066867769        4.7159647714       -6.5551817035
 O        -4.5003387696        3.6449494585       -6.8907556981
 C        -5.1997380186        4.9829282887       -5.0915851471
 C        -6.6629350519        4.9916890365       -4.5016015415
 C        -6.6724720461        5.2450233260       -3.0612082472
 O        -6.6746019787        6.4275853785       -2.6948035805
 C        -6.5891443877        4.0355561226       -2.0800908586
 C        -7.3724678404        4.2913721044       -0.6617091059
 O        -8.1693870205        3.5433218580       -0.1855159856
 C        -7.0153363653        5.6597548031        0.1858759352
 C        -8.1960464707        6.5723472251        0.2351664716
 C        -9.2076132852        6.0387751045        1.1680532587
 O       -10.0167424285        5.3284496204        0.7580550105
 C        -9.2424463792        6.5381713917        2.6475175249
 C        -9.5007921621        5.3309797003        3.5053265398
 O        -9.2934035428        4.1834496613        3.0815431383
 C        -9.7484758275        5.6208038509        4.9830743033
 C       -10.2127797512        4.2770212505        5.6521220098
 C       -11.7059230467        4.2325618609        6.1065418142
 O       -12.3995565419        5.2547720521        5.9827609482
 C       -12.2735703166        2.9374533214        6.6434867677
 C       -13.0369643668        2.1815602832        5.3861368638
 O       -12.5660736234        1.2034943638        4.9345030801
 C       -14.2693748487        2.8954016588        4.4516575446
 C       -13.7839732691        3.3086326171        3.1012115076
 C       -14.6681180724        2.6802537079        1.9143325484
 O       -15.7131653411        2.0227530624        2.0258058985
 C       -14.2521690171        3.1236985202        0.3581450550
 C       -13.1684181725        2.1184068806       -0.1636980714
 O       -12.0393339796        2.4833365668       -0.5607407216
 C       -13.4140998988        0.6248507914        0.0344895769
 C       -12.0962454407       -0.2676398175        0.2004288888
 C       -11.2532955371        0.0381087540        1.4441046897
 O       -11.1615558205        1.0868064186        2.0222774773
 C       -10.1573400708       -1.1245567645        1.5566054889
 C        -8.7796347444       -0.4295805913        0.9212599329
 O        -8.3124739946        0.5953509611        1.4327745400
 C        -8.1874664989       -1.3317178854       -0.1611161933
 C       -10.0480462425       -1.1976166514        3.1803824143
 C       -10.3930084771       -2.4707856444        0.9186581021
 C       -15.5262095842        2.8476523193       -0.5314443478
 C       -13.9314750359        4.6173593231        0.4032348393
 C       -11.1946659871        1.9851824711        7.2052424193
 C       -13.3256400298        3.4155254908        7.7914327965
 C        -7.9187067602        7.3906375523        3.0581852271
 C       -10.4577435750        7.5143587829        2.7587525254
 C        -7.0865534974        2.7108035667       -2.8030385960
 C        -5.1119890694        3.6587266094       -1.5684069384
 C        -4.1845680701        6.6971452366       -7.3627031912
 C        -6.5432879614        6.6786156970       -7.5918297800
 H        -3.5277944687        5.5488230813      -10.0730655521
 H        -4.8673272320        6.6128181032      -10.1619402031
 H        -4.8838637185        5.0859618739      -11.1145765077
 H        -4.6127394724        5.8236119451       -4.9306338339
 H        -4.6736686445        4.0448140774       -4.6986359128
 H        -7.0064537433        4.0487826416       -4.6465714132
 H        -7.3236416330        5.7075678514       -5.1439411345
 H        -6.1290994123        6.1444224938       -0.1684947165
 H        -6.8174824498        5.3806845264        1.2235489551
 H        -8.6783289303        6.5878918547       -0.7409074124
 H        -7.9287216017        7.4859986673        0.5719930723
 H       -10.6754104273        6.3211834473        5.0345793731
 H        -8.8684116458        5.8876708994        5.5218670693
 H        -9.4248494264        3.9477933501        6.3302044872
 H       -10.0186661844        3.3382957687        4.9593199431
 H       -14.6171397113        3.6353194147        5.1411869446
 H       -15.1246270832        2.1716698613        4.2965841234
 H       -12.7953541616        2.8271272513        2.7895760916
 H       -13.4313551238        4.3648406205        3.0709987919
 H       -14.0107463019        0.1486190454       -0.7920184349
 H       -13.9238550665        0.5697332495        0.9431289506
 H       -11.5268465465       -0.0812944751       -0.7499205937
 H       -12.3674294565       -1.2597919852        0.1867813851
 H        -8.8193979578       -1.5055763610       -1.0415670831
 H        -7.8257850278       -2.2890844426        0.2199350690
 H        -7.2151725742       -0.8902093292       -0.5668836088
 H       -11.0031610604       -1.4533831118        3.6653634216
 H        -9.4534076476       -0.5097911625        3.7820551362
 H        -9.5359403064       -2.1205221455        3.3877949898
 H       -11.0566588554       -3.1224933526        1.5991836991
 H        -9.4826584737       -2.9567211549        1.0794403588
 H       -10.7702442210       -2.5921129229       -0.1188436184
 H       -15.8506097519        1.8205152881       -0.7712185311
 H       -15.4808756038        3.5800374515       -1.3008960351
 H       -16.3859420079        2.9918413635        0.0719797348
 H       -14.0129983462        4.8900754810       -0.6076727326
 H       -13.0442873859        4.8532385680        0.9229882390
 H       -14.8027551759        4.8001730636        0.9995172291
 H       -10.2984070371        2.6558589434        7.5509507219
 H       -10.6767507082        1.4534339767        6.4462220391
 H       -11.5016026604        1.4531670622        8.1553018408
 H       -13.2830724247        4.5166078753        7.9948861737
 H       -13.2142039372        2.8477177871        8.7173725991
 H       -14.3556097702        3.3472524445        7.4051796323
 H        -6.9693185284        6.8967730556        2.6564672586
 H        -7.8684628582        7.3406222761        4.1178490911
 H        -7.9099343952        8.4341104508        2.6783343350
 H       -10.7106032384        7.9823687498        3.6313064698
 H       -11.2455387450        6.8591353799        2.5388033018
 H       -10.2785882270        8.3239339388        2.0171623160
 H        -8.0430231867        2.9846570151       -3.1216911400
 H        -7.1256502915        1.8357952461       -2.2252477811
 H        -6.2675108142        2.4717545874       -3.5667908904
 H        -4.5274671877        3.5602237523       -2.4360822932
 H        -5.0246065887        2.8109696799       -0.8113448464
 H        -4.7753809235        4.5272714639       -0.9954674580
 H        -4.4935935554        7.2686828829       -6.4081663513
 H        -4.0386061196        7.5121048137       -8.0267766375
 H        -3.2582798409        6.1093557209       -7.1424230946
 H        -6.6417787726        6.8911776750       -6.5144988266
 H        -7.3854332103        6.1275736146       -8.0242403039
 H        -6.7168902692        7.6571325021       -8.1386085573
 Na      -10.0912785299        3.0536409284        0.9111886344
