117

 C        -4.4972576587        5.4577468844      -10.2471057759
 C        -5.3603615006        4.8923326651       -9.0466506055
 O        -5.9298576627        3.8391219234       -9.1793900603
 C        -5.3825153471        5.6517475149       -7.5489737791
 C        -4.9541527722        4.5480699922       -6.5301838736
 O        -4.3199924542        3.5670015120       -6.9116948485
 C        -5.1755256629        4.7991146564       -5.0068415411
 C        -6.6980187954        4.9003249867       -4.6689976054
 C        -6.7299694529        5.1472221009       -3.1005604353
 O        -6.7970965366        6.3041533660       -2.7582369602
 C        -6.6069907607        4.1007895388       -1.9983220386
 C        -7.2765817271        4.3379468882       -0.6392314586
 O        -8.1308168795        3.5156937512       -0.2824509137
 C        -6.8579521237        5.4571375472        0.3115096689
 C        -7.9062271166        6.5541316103        0.2289641517
 C        -9.1441902648        6.1200769914        1.0288575566
 O       -10.0819097120        5.4076611720        0.6123729892
 C        -9.2861624708        6.5287936065        2.5667647819
 C        -9.4057724087        5.2947822619        3.5799034541
 O        -9.1985731772        4.1933008073        3.1194491227
 C        -9.8848517893        5.5108230732        5.0158114118
 C       -10.2861989298        4.2589144835        5.7937148588
 C       -11.8124974067        4.2461067640        5.9981927136
 O       -12.4504725555        5.2891820427        5.8378753148
 C       -12.3872141807        3.0353934360        6.6230375518
 C       -13.0629518067        2.3199167512        5.3955323455
 O       -12.6325885706        1.2640067278        4.9631328941
 C       -14.2397901675        2.9315032645        4.6224204052
 C       -13.7788786217        3.1592310510        3.1442470366
 C       -14.6176299246        2.7851347270        1.9801543253
 O       -15.4266207795        1.8936558922        2.0967913098
 C       -14.3319459040        3.3390188395        0.5158137279
 C       -13.1473737155        2.1844984126        0.0749035084
 O       -12.0560567568        2.4667619009       -0.3773813714
 C       -13.5813579905        0.6983235722        0.0137476231
 C       -12.3151153699       -0.2440564774        0.0979056726
 C       -11.2271987805        0.0559059192        1.2239573673
 O       -11.2241705010        1.0910083462        1.8501922633
 C       -10.0207062654       -1.1116916334        1.6341048126
 C        -8.7089591719       -0.5423316533        0.9971879537
 O        -8.2985326744        0.6537064209        1.1493928451
 C        -8.0711017076       -1.2148140656       -0.1268029585
 C       -10.0196117693       -1.1467978346        3.2330187395
 C       -10.3306077302       -2.4761615273        1.1767078912
 C       -15.5077076994        3.0464309238       -0.4754322985
 C       -13.8676957386        4.8193515366        0.4364482557
 C       -11.3423641213        2.1063003854        7.1614920374
 C       -13.2993925243        3.5478115615        7.7581539666
 C        -8.0004887362        7.3754805229        3.0876157919
 C       -10.4397069798        7.4937656602        2.5026995661
 C        -7.1414002962        2.6840570789       -2.4899781133
 C        -5.0516041788        3.8189782630       -1.4587435547
 C        -4.2302430330        6.7366472231       -7.4650746876
 C        -6.7337544972        6.4384622752       -7.7305111432
 H        -3.4966304350        5.3293660830       -9.8690553425
 H        -4.7314620180        6.5550439629      -10.2482998769
 H        -4.6697390228        4.9224099103      -11.1759484034
 H        -4.8609321462        5.8411336133       -4.8687243136
 H        -4.5563989385        4.0249518612       -4.4534595962
 H        -7.3812095100        4.1096910362       -5.1043212193
 H        -6.9195996204        5.8689690188       -5.1751098841
 H        -5.9084562514        5.7853707067        0.0427510135
 H        -6.8059573226        5.1134786937        1.3630526207
 H        -8.1762642028        6.6645950914       -0.7632545048
 H        -7.5392174974        7.4439736521        0.6956741349
 H       -10.7775062526        6.0627227580        4.9230361483
 H        -9.0026186524        5.9919112148        5.7038283028
 H        -9.7330003138        4.1707211258        6.7387819933
 H        -9.8535938651        3.3929584453        5.3561619123
 H       -14.5960204243        3.8587719933        5.1548880355
 H       -15.0653614154        2.2550142402        4.6240478182
 H       -12.8081163205        2.8277684871        2.7745395429
 H       -13.5797500008        4.2627061053        3.1238719860
 H       -13.8207234722        0.5431659069       -1.1321276870
 H       -14.4813626312        0.3871677507        0.6531595027
 H       -11.9751613063       -0.1493443570       -0.9742079298
 H       -12.6116107083       -1.3076015874        0.1801702826
 H        -8.7435439105       -1.4397211816       -0.9219280100
 H        -7.4868525485       -2.2033521851        0.1360929469
 H        -7.2368956885       -0.5891394323       -0.4886202161
 H       -10.9930531235       -1.3987575152        3.6455023195
 H        -9.4585902594       -0.4210440836        3.8257494476
 H        -9.4925691471       -2.0690472136        3.4832969295
 H       -10.9039986906       -3.0403391105        1.9789005198
 H        -9.3897307916       -2.9398004337        1.4263691822
 H       -10.7188009279       -2.7621218813        0.1956264430
 H       -15.8136173745        2.0922731478       -0.6187089662
 H       -15.3200767170        3.6568638914       -1.2731429329
 H       -16.4557905081        3.3315412606        0.0425058227
 H       -14.1266927158        5.0935518159       -0.6078398037
 H       -12.8389684330        4.7902196470        0.6376985552
 H       -14.4385135335        5.2569925430        1.2496055290
 H       -10.5268400324        2.5886071364        7.7349362392
 H       -10.7310817739        1.6299111591        6.2855389011
 H       -11.7692717322        1.4740848556        7.9074775932
 H       -13.2245478329        4.6130195529        7.7551880160
 H       -13.2090312336        3.1533935502        8.7213746924
 H       -14.3257956103        3.5201794537        7.3373517312
 H        -7.1453912203        6.7622100742        2.7887389348
 H        -8.0160332916        7.2575624619        4.2259006127
 H        -7.7952383816        8.4005152972        2.7281888920
 H       -10.4585845020        8.3162920446        3.1880779739
 H       -11.3374766064        6.9207253614        2.6357791797
 H       -10.3904662678        7.9794641800        1.5948790707
 H        -8.2581973796        2.5761690610       -2.5025440311
 H        -6.7261404395        1.9260673626       -1.8683126251
 H        -6.5551100302        2.5792904253       -3.3714272149
 H        -4.4722565691        3.5324603150       -2.3453038656
 H        -4.9541340592        3.2357465062       -0.5518614401
 H        -4.6228360317        4.8118596750       -1.1980202124
 H        -4.3464778883        7.4116112717       -6.6079961118
 H        -4.1326477266        7.4636593381       -8.2904155388
 H        -3.3525866787        6.1319116067       -7.3701014730
 H        -6.7460782468        7.1473989408       -6.8842020791
 H        -7.5351763052        5.8155219485       -7.8364844061
 H        -6.8294159639        6.9799393323       -8.5651779962
 Na      -10.1331036271        2.9882338351        0.8712904840
