117

 C        -4.3523847712        5.1631758341      -10.3387065705
 C        -5.3456942187        4.6246102976       -9.1605620720
 O        -6.1632090490        3.7460921261       -9.3575146384
 C        -5.2876957045        5.4453954850       -7.6771853852
 C        -4.8534392998        4.4795333063       -6.5379004688
 O        -4.1614993834        3.5734233223       -6.9383095568
 C        -5.2544365559        4.6164962081       -5.0893776055
 C        -6.6793090208        4.6526042810       -4.3958859221
 C        -6.8725942173        4.9581357169       -2.9020697482
 O        -7.0582271247        6.1547461128       -2.6153127998
 C        -6.4807523857        3.8487972803       -1.8883900585
 C        -7.2775335665        4.2004655454       -0.5346935875
 O        -8.2542136122        3.5497730088       -0.3137946259
 C        -6.6919556038        5.2870215811        0.3845948165
 C        -7.6774139819        6.4863357036        0.3161418339
 C        -9.0487625369        6.1631147597        0.9398100285
 O        -9.8714365624        5.6232837409        0.2876803451
 C        -9.2562357625        6.5465277310        2.4692399745
 C        -9.5247914638        5.3144574309        3.3552467183
 O        -9.3220247004        4.1665941662        3.0019078777
 C        -9.7705933423        5.7180035079        4.8523109589
 C       -10.2948516180        4.5363808384        5.7425919291
 C       -11.7926447041        4.4482506436        5.9496638824
 O       -12.5451340262        5.1942415178        5.3508978572
 C       -12.5616808324        3.2199637899        6.6661816804
 C       -13.1415846749        2.4023601990        5.4274052524
 O       -12.7887418455        1.3065678901        5.1183287346
 C       -14.2196772261        3.0773650333        4.6305443183
 C       -13.6831010349        3.3746956532        3.2409699255
 C       -14.4179473948        2.7562865934        2.0980658267
 O       -15.1887354522        1.8484689069        2.3490437854
 C       -14.2005674123        3.2446929524        0.6453187696
 C       -13.0515181837        2.3117955814        0.1959141108
 O       -11.9627072954        2.8604059781       -0.0934934662
 C       -13.4331325679        0.7895781884        0.1482458095
 C       -12.3693358128       -0.3827667806        0.1390582483
 C       -11.3399379072        0.0236146567        1.1077090200
 O       -11.2904909458        1.1049053378        1.6695383250
 C       -10.1364443708       -0.9178624715        1.4585238756
 C        -8.9892148513       -0.3213710433        0.7832712869
 O        -8.6408352722        0.7952566720        0.9643470571
 C        -7.9869474330       -1.1847178912        0.1331717872
 C        -9.7827119495       -0.5337784565        2.9531811134
 C       -10.4219462505       -2.4732754414        1.2507115519
 C       -15.6390342564        3.3758098925       -0.1492657449
 C       -13.5700650018        4.6858731543        0.7097004904
 C       -11.5818313040        2.1567843895        7.4049888414
 C       -13.7040127663        3.5221793179        7.6091699891
 C        -8.1417707573        7.3114129028        3.1163212984
 C       -10.5583419521        7.4207622315        2.5524393577
 C        -6.8082414520        2.4423582509       -2.4411346356
 C        -4.9197868175        4.0391407713       -1.9027246172
 C        -4.3872304199        6.6710259586       -7.8122079070
 C        -6.7571966759        5.7567200008       -7.4200959281
 H        -3.3292905154        5.1003731418       -9.9412467014
 H        -4.5894042844        6.1611332326      -10.6279141490
 H        -4.4697501783        4.3965694939      -11.1742348529
 H        -4.9798714609        5.6874698945       -4.9826473502
 H        -4.6118094134        3.9588464811       -4.5555953998
 H        -7.2094591322        3.7696082127       -4.5499176563
 H        -7.2341463083        5.3924296734       -5.0139468102
 H        -5.6663790852        5.5830489454       -0.0285390137
 H        -6.5492507882        4.9445018889        1.4100199967
 H        -7.8900145994        6.7242242584       -0.8205927438
 H        -7.1568153275        7.2887677295        0.8823703040
 H       -10.6444997467        6.4039020420        4.9263568084
 H        -8.8826447500        5.9573210749        5.1371565233
 H        -9.9545071968        4.3999043982        6.7457463508
 H        -9.7737558105        3.6141978576        5.3725171115
 H       -14.6612740021        3.9398656227        5.1045534240
 H       -15.0966178064        2.3680317720        4.5105492629
 H       -12.6527658245        3.1347897224        2.9477598374
 H       -13.6847594115        4.4584736612        3.2045131243
 H       -14.1375854907        0.6923084749       -0.6443144751
 H       -13.9639105125        0.5941111814        1.0427127917
 H       -11.7743072077       -0.4379953335       -0.8017171492
 H       -12.7983690548       -1.3946159685        0.1721308367
 H        -8.5348717395       -1.8032968152       -0.6004540379
 H        -7.4527684175       -1.8545017340        0.6767021269
 H        -7.1980327388       -0.5889153270       -0.3205769517
 H       -10.4854372313       -0.9850291884        3.6524604398
 H        -9.7140122642        0.5320905037        3.1255215050
 H        -8.7957295248       -0.8699755978        3.2790946379
 H       -11.4476837723       -2.7466641115        1.4644504107
 H        -9.8879469127       -3.1198188838        1.9192654922
 H       -10.2687110150       -2.7810956018        0.2168509445
 H       -16.3782918687        2.6954179729        0.4108425509
 H       -15.4541714832        3.0907364213       -1.2304496582
 H       -16.1614709590        4.3110819781       -0.1102853014
 H       -13.5296737493        4.8744902089       -0.3223226106
 H       -12.5764268794        4.4629703442        1.1455168392
 H       -14.2749047216        5.3157369400        1.2668165821
 H       -11.5086241892        2.1620622160        8.4795695662
 H       -10.6908844568        2.1102868197        6.9497161295
 H       -12.0359313082        1.1642203566        7.3620095580
 H       -13.6645594060        4.5098838846        8.0863575511
 H       -13.6819485463        2.7589993437        8.3994871544
 H       -14.6294547411        3.4948647831        7.1189342914
 H        -7.2654657535        6.7128328852        3.3719044369
 H        -8.4192486195        7.9131429472        3.8934566418
 H        -7.8353135863        7.9513948938        2.3060985054
 H       -10.5542609417        8.0458200155        3.4596259113
 H       -11.4405073992        6.7397630201        2.5554748852
 H       -10.6597121099        8.2488631695        1.7033882656
 H        -7.8262726464        2.4441556881       -2.7305884861
 H        -6.7661419050        1.7038561286       -1.5993374159
 H        -6.0161460485        2.2286701599       -3.2564470579
 H        -4.5104602290        3.3103406080       -2.5686842628
 H        -4.6435914684        3.8276759418       -0.8535489445
 H        -4.4268206390        4.9363762692       -2.2545603600
 H        -4.3725262318        7.1534966462       -6.8418696984
 H        -4.9377945192        7.3565792073       -8.3672618257
 H        -3.4027668480        6.5489880048       -8.2291465507
 H        -7.0155858392        6.5451197232       -6.6782349272
 H        -7.2117352477        4.7516867932       -7.2838818508
 H        -7.2562791347        5.9283578295       -8.4628047551
 Na       -9.8651246687        2.9613321873        1.0953513980
