117

 C       -11.2942987509       -0.2217503955        8.2052013644
 C        -9.8843305741       -0.1113406047        8.8257248771
 O        -9.4621445004        0.8667929870        9.4080124117
 C        -8.8901515175       -1.2269749070        8.5754922125
 C        -8.9017491998       -1.4323791206        6.9806311865
 O        -9.7156967462       -2.2226913750        6.5502660238
 C        -7.8463981603       -0.6292417738        6.2013416264
 C        -8.1651705316       -0.6096098030        4.6754611850
 C        -6.9082890836       -0.6047268868        3.9000364841
 O        -5.8673200282       -1.0315897638        4.3490913678
 C        -6.8307449520        0.0582325105        2.4663176787
 C        -7.4198063903        1.5804546525        2.4789271315
 O        -8.0630558890        2.0573535140        3.4474162418
 C        -7.3591402283        2.5255330656        1.2542334518
 C        -7.4082613072        4.1025382027        1.5427334917
 C        -8.6974003657        4.6528331700        1.0210848243
 O        -8.9350572014        4.4564274146       -0.1675414406
 C        -9.6647815020        5.5124942626        1.9505170040
 C       -10.9326846371        5.5019966305        1.1055862317
 O       -11.1710043212        6.4594905738        0.3639474292
 C       -11.8550528125        4.3102877505        1.1044933103
 C       -12.4878532108        3.8367397670       -0.2617931425
 C       -11.7247006183        2.9171775781       -1.1746309551
 O       -10.6445381634        2.4344719804       -0.8949959671
 C       -12.3364419354        2.6940012860       -2.7166558284
 C       -11.2847636862        3.2371530433       -3.7410961355
 O       -10.5683543670        4.1412664808       -3.4307520650
 C       -10.9098686506        2.4391012397       -5.0040709760
 C       -10.2907999509        3.3698206234       -6.0491656219
 C       -11.3974980781        4.2827427035       -6.7205306294
 O       -12.5346802407        3.8665969800       -6.6735204016
 C       -11.0732972656        5.6389105093       -7.4754210922
 C       -10.7809439360        6.5380856380       -6.2790465661
 O        -9.7437812755        6.4753593644       -5.6313855040
 C       -11.8993246240        7.5520656676       -5.8154382309
 C       -11.3181851783        8.6981186818       -4.9059800795
 C       -10.8038515787        8.1169712787       -3.5533514358
 O       -11.3100174563        7.1669275870       -3.0414453845
 C        -9.6531076853        8.9211266733       -2.7091202054
 C        -8.3798412367        7.9369484027       -2.4266250859
 O        -8.3929587885        7.0675315502       -1.6063259411
 C        -7.0472850263        8.1747398099       -3.1581529381
 C        -9.1889828625       10.1893091342       -3.4276165609
 C       -10.0927702254        9.4416921181       -1.2930299212
 C        -9.7976477670        5.3027984400       -8.2529533934
 C       -12.1883154992        6.0832039740       -8.3974789438
 C       -12.5927388833        1.0844477736       -2.9244192016
 C       -13.7626602774        3.1946435947       -2.8092833296
 C        -9.8220980930        4.8551738523        3.3214556784
 C        -9.2053387932        6.9617547736        2.0633131198
 C        -5.3568650005       -0.1146754365        2.0133601552
 C        -7.7872027138       -0.6841088497        1.4222448009
 C        -7.4361285509       -0.8259099530        9.0879458168
 C        -9.2519411860       -2.5295569963        9.2917788022
 H       -11.8048658624       -1.1610678710        8.3492201840
 H       -11.1370190398        0.1169463527        7.2252709400
 H       -11.9429288105        0.4119936909        8.6708981937
 H        -6.8617015096       -1.1504579322        6.3054679253
 H        -7.9332738891        0.3254188351        6.6902601615
 H        -8.8038045937        0.2692960627        4.3428307657
 H        -8.7552647449       -1.5639446042        4.3960454433
 H        -8.2393250572        2.3150981041        0.5638604555
 H        -6.4118570034        2.3638941833        0.6687544033
 H        -6.5511235450        4.5401151247        1.0506068905
 H        -7.3466613036        4.3829089962        2.6473472765
 H       -12.6254905782        4.4670774277        1.9213548952
 H       -11.3920595760        3.5222601650        1.6468657422
 H       -12.9756420766        4.6627406947       -0.7936826588
 H       -13.4030854024        3.1622371773        0.0047833200
 H       -11.7599828875        1.9682368137       -5.3427446387
 H       -10.1912780959        1.6944346971       -4.6882863551
 H        -9.9909033014        2.8501117025       -6.9251958221
 H        -9.4856964911        3.9192437067       -5.6614444344
 H       -12.6411725605        6.9930937101       -5.2323568600
 H       -12.3713580710        7.9366763505       -6.7087621589
 H       -12.0155229176        9.4426254011       -4.6572801768
 H       -10.4898577889        9.0970079321       -5.4027644184
 H        -7.3190846574        8.6894910003       -4.0605339390
 H        -6.5779856083        7.2536433834       -3.3275880825
 H        -6.3782550082        8.8394125350       -2.6180198434
 H        -9.8394232473       10.9683042534       -3.2067198392
 H        -9.3340853932       10.1386821154       -4.5710042817
 H        -8.1884110861       10.5622396149       -3.3273251994
 H       -10.9379097293        8.8335741173       -1.0324085273
 H       -10.4966989323       10.4687752986       -1.4182980795
 H        -9.1461362802        9.3775484969       -0.5993342604
 H        -9.9175948496        5.0572421586       -9.2650087923
 H        -9.2168516391        4.4105732177       -7.8756661858
 H        -9.0216884425        6.1272932022       -8.2322590261
 H       -12.4396877421        5.4550019406       -9.2592797907
 H       -11.7803928034        7.0089719938       -8.9198280793
 H       -13.1015598423        6.2352599089       -7.7932630203
 H       -13.0679729054        0.5397891115       -2.1042738416
 H       -11.7004868993        0.5683088714       -3.1499662897
 H       -13.1799321575        1.1089811668       -3.8246149395
 H       -13.8007170592        4.3601077879       -2.5895552299
 H       -14.2925053538        2.5288091027       -2.0560037908
 H       -14.2067845003        3.0790440227       -3.7992971809
 H        -9.5674155622        3.7939601709        3.3302242321
 H       -10.9953016664        4.7772801410        3.5114982330
 H        -9.5052068548        5.2789362504        4.2253104140
 H        -9.1711736596        7.4547876151        1.0637150387
 H        -8.1616315601        7.0382220003        2.3983956629
 H        -9.7615608776        7.6144571246        2.7105672067
 H        -4.9565735976       -1.1581669415        2.1271393874
 H        -4.6700267372        0.5434121964        2.5998117557
 H        -5.2347544640        0.1551346945        0.9601004080
 H        -8.8439891626       -0.3319997395        1.5715033667
 H        -7.8089563239       -1.8204914239        1.5827715114
 H        -7.3740248263       -0.5250166961        0.3827476331
 H        -6.8942088115       -0.0908607452        8.5289243659
 H        -6.8438552718       -1.7198785066        9.1567517709
 H        -7.7483128244       -0.3970620168       10.0846518206
 H       -10.3076584656       -2.7543983199        9.0770889641
 H        -9.1827622856       -2.2892691961       10.3976808971
 H        -8.6619051275       -3.4582830711        9.0717306991
 Na      -10.3371779158        5.6150380076       -1.7734406122
