117

 C        -4.0584476531        4.0875491042       -9.9135060128
 C        -5.5291813507        4.1633591232       -9.1809567152
 O        -6.3490983106        3.3494477157       -9.5066183491
 C        -5.6747658489        5.1185559366       -7.8821556871
 C        -5.1358833443        4.3381804904       -6.6509011270
 O        -4.2114368103        3.5838250513       -6.8482632287
 C        -5.3415107579        4.9689528789       -5.2585675067
 C        -6.2692554009        4.0525366657       -4.5310653565
 C        -6.6308279910        4.4413419587       -3.1759800446
 O        -7.4783007528        5.3166198856       -2.9604637372
 C        -6.0071895060        3.5838649316       -1.9107900167
 C        -6.9307363667        3.9084900460       -0.6812441211
 O        -8.0175983207        3.3457340531       -0.5384750728
 C        -6.5331673251        4.9842433169        0.3581869147
 C        -7.5326551924        6.1910219494        0.5940013893
 C        -8.9418419672        5.9504238680        1.1160138736
 O        -9.6446786866        5.2437626759        0.5225295194
 C        -9.4173079988        6.7065203350        2.4858659717
 C        -9.7476055225        5.4761084148        3.4608642201
 O       -10.1092500231        4.4025219170        2.9203282425
 C        -9.7621702059        5.7588905532        5.0193951969
 C       -10.2686068175        4.4765964290        5.8072462169
 C       -11.7763541680        4.5454301353        5.9990711412
 O       -12.4487120635        5.5061036292        5.5722132798
 C       -12.5742938350        3.4995738880        6.8246083573
 C       -13.3076287256        2.4907240493        5.7245884845
 O       -12.8163590158        1.4028021275        5.8818192629
 C       -14.3978279618        2.8910746303        4.6724122421
 C       -13.9608669810        3.6349460327        3.4467290051
 C       -14.4185674808        2.9028153773        2.1183093979
 O       -14.9737048951        1.8043446287        2.1932776429
 C       -14.0128997701        3.5686815351        0.6330494946
 C       -12.9288439418        2.5220014603        0.1270739953
 O       -11.8299859856        2.9928397649       -0.2766456685
 C       -13.3232288312        1.0676660816       -0.0175827542
 C       -12.1844307821        0.0955745594        0.2281497297
 C       -11.3299211733        0.4790697773        1.3949825502
 O       -11.6625458090        1.3292498201        2.2151630679
 C       -10.0756235469       -0.5226254387        1.5856487221
 C        -9.0086619858       -0.1484955280        0.5856751108
 O        -9.0753546243        0.8827926635       -0.0585220104
 C        -7.8371917844       -1.0595268009        0.5414309115
 C        -9.6114938963       -0.2867950371        3.0479253415
 C       -10.5076204842       -1.9508282060        1.2322219201
 C       -15.3562808120        3.5410343743       -0.1877528482
 C       -13.2732709584        4.9382532971        0.5204716400
 C       -11.6904723149        2.6128383405        7.6963289111
 C       -13.6832301249        4.3043101687        7.6179053194
 C        -8.3859761547        7.6830678078        3.2529631327
 C       -10.7141651109        7.4379809659        2.1881388070
 C        -5.9843215480        1.9752057159       -2.2768833885
 C        -4.4821471054        3.9647439458       -1.7355123658
 C        -4.7781168300        6.3739314182       -8.1261788468
 C        -7.2556410930        5.2466941192       -7.7829818753
 H        -3.3975504014        3.9736827828       -9.0417849514
 H        -3.7666867979        5.0206032256      -10.4437370629
 H        -4.0097746424        3.1648225306      -10.6340406044
 H        -5.7278329865        5.9851629988       -5.3201677597
 H        -4.4431146497        4.9777835649       -4.5696566273
 H        -5.8914126111        3.1145685161       -4.6510012107
 H        -7.2800562829        3.9662631757       -5.0908737796
 H        -5.4780641477        5.3364799350        0.3379560658
 H        -6.6809436516        4.3825130380        1.2439695175
 H        -7.6088285488        6.8265612311       -0.4052355895
 H        -6.9163444367        6.8249733011        1.2664246062
 H       -10.4912263836        6.5266629655        5.2040261729
 H        -8.8070512223        5.8425596275        5.4075310044
 H        -9.8083256786        4.4473013777        6.7519072976
 H       -10.0540002694        3.4509100103        5.4706133204
 H       -15.2185337217        3.3591658846        5.1611223129
 H       -14.7754709342        1.8846113378        4.4194889911
 H       -12.8795720544        3.5368119436        3.4847215718
 H       -14.2301538165        4.6098390616        3.1915579060
 H       -13.8353695954        0.9151689350       -0.9925481832
 H       -14.1728500585        0.9801801618        0.5922945011
 H       -11.5535952269        0.1631660026       -0.7250432735
 H       -12.4001908216       -0.9617372648        0.2239346110
 H        -8.1543776905       -1.8254253583       -0.1092383995
 H        -7.5929604494       -1.6602817862        1.3961560833
 H        -6.8678583178       -0.6248624220        0.3055680134
 H       -10.5456174293       -0.3742637367        3.6271990557
 H        -9.3543996064        0.7634542222        3.2351833983
 H        -8.8450073924       -0.8962835818        3.4715464761
 H       -11.5140618110       -2.2337598098        1.7075338828
 H        -9.8357198539       -2.7173835616        1.2761968093
 H       -10.7193666713       -1.9073678090        0.1614460493
 H       -16.2337311076        3.6144843717        0.4639473721
 H       -15.6184887174        2.6517162057       -0.7101540052
 H       -15.3061147417        4.4152104445       -0.8253218809
 H       -13.3811016770        5.2528907892       -0.4981000872
 H       -12.2673641915        4.7539344807        0.8697378602
 H       -13.9925766636        5.5764116599        1.0683382010
 H       -10.8877793944        3.0518677058        8.2588871682
 H       -11.4726311862        1.7466312979        7.1043215368
 H       -12.2035026966        2.1168160140        8.4590257315
 H       -13.7240941889        3.8848802998        8.6081881859
 H       -14.6452867946        4.2113802420        7.2007599572
 H       -13.5066505983        5.3654850161        7.6921308150
 H        -7.4761275581        7.1364499285        3.6498947758
 H        -8.8835824628        8.1616213751        4.0610801644
 H        -8.0006198335        8.5192426178        2.6477792235
 H       -11.1287086218        7.5493981564        3.1412336075
 H       -11.3147788108        6.7368274400        1.5921332727
 H       -10.7166759647        8.3938801046        1.6106453007
 H        -6.9384133092        1.5850009578       -2.5681856229
 H        -5.5454664369        1.4501999489       -1.4376231379
 H        -5.3598732893        2.0267326694       -3.2361494989
 H        -3.8461807477        3.7957084131       -2.5526063324
 H        -4.1079658138        3.3527146889       -0.8943437285
 H        -4.3608307005        5.0174179225       -1.6421584682
 H        -5.1383332457        7.1740403848       -7.4472649906
 H        -4.9343017834        6.6650378386       -9.0918722964
 H        -3.7150467092        6.2566790065       -7.9416748522
 H        -7.6456741459        5.7898348520       -6.8624306826
 H        -7.5553275473        4.2956867296       -7.5331543581
 H        -7.5584710188        5.6391560633       -8.7087889153
 Na       -9.9491410888        3.0446775053        0.6889163550
