117

 C        -4.0288769390        3.7562390020       -9.7632054114
 C        -5.4205544811        3.9737257878       -9.2024239534
 O        -6.3058746479        3.2377272330       -9.5041123034
 C        -5.7405581520        5.0572472851       -8.1454016269
 C        -5.0120197655        4.4793482676       -6.9244374339
 O        -4.2720363627        3.4661725542       -6.7792557865
 C        -5.4248413084        4.9975426775       -5.3878938348
 C        -6.1077176729        3.7759579109       -4.4903316413
 C        -6.6669057641        4.2336176372       -3.0701467251
 O        -7.3835046050        5.1565997461       -2.8788533386
 C        -5.9774490308        3.5003437747       -1.8879705889
 C        -6.8699669188        3.8583107385       -0.6228606217
 O        -7.9483528443        3.2760754457       -0.6125998247
 C        -6.4953929938        4.9523243979        0.5655308604
 C        -7.3694596409        6.1992934935        0.6603807395
 C        -8.8785802200        5.9922780545        1.2137049890
 O        -9.6092254400        5.2001221084        0.6630412419
 C        -9.4826650662        6.5645485372        2.4655632700
 C        -9.8681156087        5.4311820211        3.4216767436
 O       -10.1912447048        4.3498501943        2.9269493104
 C        -9.7500543264        5.6781115635        4.8453191015
 C       -10.2276296980        4.5288524551        5.8275163661
 C       -11.7669256878        4.7411011513        6.0756105122
 O       -12.3302225352        5.7403262568        5.6386211212
 C       -12.5935580412        3.5806380320        6.8632822325
 C       -13.2423157527        2.5929287768        5.7672988529
 O       -13.0350448584        1.3989405152        5.8434584293
 C       -14.2222157527        2.9168111477        4.6632282411
 C       -13.8533982111        3.5474969686        3.3105280471
 C       -14.3725812961        2.8486870547        2.0162777799
 O       -15.0529932507        1.8416370458        1.9865943990
 C       -14.0420272002        3.6836543500        0.7375308059
 C       -12.9932319154        2.5954032129        0.0596842349
 O       -11.9144257549        3.0456518663       -0.2937837980
 C       -13.3593547779        1.1934784634       -0.1345532920
 C       -12.1998019301        0.2034213696        0.0621174433
 C       -11.3793954597        0.3776660153        1.4391569871
 O       -11.4770865801        1.3759623045        2.1025392714
 C       -10.1607748961       -0.6194925394        1.7338334393
 C        -9.0236005763       -0.1039706535        0.7091555147
 O        -9.1981301185        0.8284087860       -0.1200118871
 C        -7.7163845790       -0.9417801322        0.5280707725
 C        -9.5102841179       -0.2428236529        3.0995339192
 C       -10.4767988067       -2.0342131407        1.4674351571
 C       -15.2508780928        3.6614328498       -0.1561494823
 C       -13.4281679556        5.0625204303        0.8715013896
 C       -11.6658919431        2.8764824054        7.7980405665
 C       -13.7718534415        4.3332207051        7.7414038556
 C        -8.4368207698        7.6076519839        3.0975391768
 C       -10.7731292376        7.4292172540        2.1603933457
 C        -5.9479287100        1.9449735904       -2.0959189548
 C        -4.5758474749        4.1558356835       -1.8420068936
 C        -5.0870882695        6.4276701772       -8.3665927850
 C        -7.2479514900        5.3036466516       -7.7659558869
 H        -3.3407970635        3.5360587687       -8.9203328384
 H        -3.7448082920        4.7803095172      -10.1766091106
 H        -4.0300532957        3.0446211576      -10.5023538429
 H        -6.0929340257        5.7497466432       -5.2287029891
 H        -4.5388134280        5.3898990465       -4.7957800362
 H        -5.4815629618        2.8908720198       -4.5649328681
 H        -6.9677304537        3.4428882048       -5.0374606679
 H        -5.4977035254        5.2808972966        0.3691168369
 H        -6.5183568624        4.3895746152        1.5852085765
 H        -7.4276569331        6.5751260725       -0.3819808254
 H        -6.6641245661        6.9498354294        1.1458650987
 H       -10.1936032214        6.5822265093        5.0996498529
 H        -8.6098882753        5.3937238772        5.1317328433
 H        -9.6100192990        4.6336777490        6.7452956661
 H       -10.0949500080        3.4557878181        5.5632484010
 H       -14.9906655422        3.6733334100        4.9622222121
 H       -14.7477873263        1.9758387115        4.6357879159
 H       -12.7986301494        3.7195959881        3.1679735964
 H       -14.4072290969        4.4871852794        3.1226821463
 H       -13.8960757493        1.0838133267       -1.0081012019
 H       -14.1692854091        1.0593770188        0.4994632384
 H       -11.6034384890        0.2121782837       -0.8940671662
 H       -12.5472626783       -0.7944724469        0.0508400654
 H        -7.8265790977       -1.7540879056       -0.0927689137
 H        -7.2787113789       -1.4272335571        1.4523734884
 H        -6.9099138848       -0.3196508455        0.2574605094
 H       -10.2222389823       -0.2197776190        3.9228628036
 H        -8.9606558903        0.7272636024        3.1563233226
 H        -8.8461552575       -1.0430430226        3.3712515829
 H       -11.5412266615       -2.2141485459        1.6954824194
 H        -9.8817468216       -2.7228685177        2.0627854626
 H       -10.2109689088       -2.4082258614        0.5068774796
 H       -16.1606017342        4.0087777832        0.3110713192
 H       -15.6258735052        2.6715529388       -0.3247071392
 H       -14.9600319880        4.2670327001       -1.1012127549
 H       -13.3802516236        5.3815774095       -0.1834263980
 H       -12.4926248765        4.8575795902        1.2911035475
 H       -14.1793141871        5.7019126216        1.3402289772
 H       -10.9369497512        3.4749110636        8.1799847783
 H       -11.3713524352        1.8441741181        7.4768871509
 H       -12.2099516612        2.5896311571        8.6373119704
 H       -14.1566745617        3.7798223327        8.5746712466
 H       -14.5164868465        4.7185711155        7.1347337711
 H       -13.2783159269        5.2629648477        8.0890921502
 H        -7.7498754402        7.1159289720        3.7335976454
 H        -8.9037498404        8.3874568460        3.7265322521
 H        -7.8288228696        8.1116953474        2.3962996854
 H       -10.9530010413        7.8974411147        3.1782477589
 H       -11.6584266032        6.8107593166        1.7806167376
 H       -10.6242883282        8.1488673166        1.3681788053
 H        -6.9362703566        1.5323534735       -2.5518425828
 H        -5.6681878980        1.5312687366       -1.1182842883
 H        -5.2186998690        1.8174909953       -2.8566146334
 H        -3.9090854350        4.0120652842       -2.6833807700
 H        -3.9673007008        3.8742166334       -0.9949149869
 H        -4.8460579165        5.2128035205       -1.8741626116
 H        -5.5268313865        7.1427588862       -7.7179750567
 H        -5.1787618161        6.7555198526       -9.3855273531
 H        -4.0681274032        6.3870648216       -8.1393177827
 H        -7.2074571308        5.7466223546       -6.7602311619
 H        -7.8140813422        4.3367205798       -7.4199379317
 H        -7.5920249498        6.0728432558       -8.4832148141
 Na      -10.0710702636        3.0463935505        0.4996129582
