117

 C        -3.9726735128        3.3934110004       -9.5796623823
 C        -5.4336051699        3.7725047943       -9.1779061669
 O        -6.3845414606        3.0901024221       -9.5106278818
 C        -5.8124558765        4.8875221149       -8.3169240006
 C        -5.1819024817        4.4621805731       -6.7886886683
 O        -4.3947302728        3.5890147015       -6.7105394424
 C        -5.6503198368        4.8085163194       -5.3997325614
 C        -5.9019477640        3.6468153737       -4.4006788921
 C        -6.4784758524        4.1112112712       -3.0849512680
 O        -7.4148926686        4.9540087943       -3.2258636337
 C        -5.9203826343        3.5726748455       -1.7399524696
 C        -6.8789497911        3.8108771628       -0.6079967612
 O        -7.8788006934        3.1200066482       -0.5588746972
 C        -6.4885204361        4.6773443370        0.6428072378
 C        -7.3505975397        6.0747486589        0.7130750512
 C        -8.7866677154        5.8225089182        1.0106963735
 O        -9.5792360166        5.2430904276        0.2773457955
 C        -9.2980069091        6.4578961072        2.3926059891
 C        -9.8188626206        5.4195623448        3.3385007392
 O       -10.3414439477        4.4014669481        2.9669513250
 C        -9.5105982847        5.5041115616        4.8954043614
 C       -10.3600715918        4.5284555611        5.7439551615
 C       -11.8293162851        4.9076607961        6.0569443270
 O       -12.2847257772        6.0073121086        5.8322563378
 C       -12.7180454061        3.8749856507        6.7899177344
 C       -13.2473566836        2.7550254849        5.9199656279
 O       -12.9411162416        1.5902389478        6.0664784535
 C       -14.3357220519        3.0934187011        4.9249830490
 C       -13.5770780238        3.3643083839        3.5139364862
 C       -14.4174244310        3.0237631366        2.2760191629
 O       -15.2880937947        2.1675191991        2.3548203289
 C       -14.1295808031        3.7098252150        0.7760182868
 C       -13.0281184282        2.8313163398       -0.0598724385
 O       -12.1724285733        3.3492599176       -0.7910379522
 C       -13.2006229716        1.2869957434       -0.2598158871
 C       -12.0797236610        0.2093917921       -0.0566079890
 C       -11.3099118028        0.4215147415        1.3033129668
 O       -11.3556292051        1.5289592699        1.8798419511
 C       -10.1079264909       -0.6159946674        1.7928082893
 C        -9.0099568885       -0.2134464909        0.6310802410
 O        -9.2572489076        0.6716359742       -0.1332238277
 C        -7.6251157558       -0.7774037064        0.6650333098
 C        -9.6032382058       -0.0648781435        3.0572904164
 C       -10.5146318976       -2.0615224402        1.8609540539
 C       -15.3907336192        3.8491396241       -0.2016172617
 C       -13.5673231233        5.1153999425        0.9576411593
 C       -11.7398982533        3.1696956114        7.8406561862
 C       -13.9529220303        4.4597651350        7.4420621102
 C        -8.4913738841        7.4920013499        3.1112663196
 C       -10.5809975736        7.2249961731        1.9894013716
 C        -5.5442094899        1.9741897612       -1.5475508132
 C        -4.4879140920        4.3368355801       -1.5882513422
 C        -5.2051932104        6.2242920557       -8.8410524209
 C        -7.4296781567        4.9578513220       -8.1333266932
 H        -3.6028410823        2.6994137181       -8.8963942140
 H        -3.3145165391        4.1733089050       -9.7329681976
 H        -4.2232273259        2.8155648671      -10.5244452819
 H        -6.5263071225        5.4896104197       -5.1250137688
 H        -4.8938425053        5.4829469157       -5.0226156547
 H        -5.0895715096        2.9180462112       -4.3237893978
 H        -6.6561077045        2.9787084285       -4.9539624946
 H        -5.3637487360        4.7407778519        0.7413945696
 H        -6.8421053760        4.1848490607        1.4750625775
 H        -7.2779820663        6.6983451014       -0.1609954804
 H        -6.8854407762        6.6972495127        1.3771109583
 H        -9.9158654625        6.5508742373        5.1968408179
 H        -8.6382541854        5.1804752220        5.1854724397
 H        -9.8908134691        4.4159579349        6.7460621592
 H       -10.3429353998        3.5018319910        5.3134717421
 H       -14.8706662999        4.0221876301        4.8809623486
 H       -15.0590287292        2.2351470977        4.9858249327
 H       -12.8298198546        2.5365896426        3.2472119828
 H       -13.2545803246        4.3902158567        3.3500906300
 H       -13.9346311529        1.2503293228       -1.1961037195
 H       -14.0462364724        1.0055470799        0.4457339353
 H       -11.3704297901        0.1091147019       -0.8754381250
 H       -12.6065541702       -0.7939600658       -0.0580460077
 H        -7.7110667573       -1.7978681013        0.1407294571
 H        -7.1853069673       -1.0531621808        1.5971031629
 H        -6.8240184139       -0.1376819502        0.1584977641
 H       -10.2445459518       -0.3745951204        3.9107563092
 H        -9.3413781062        0.9869469187        3.1198918657
 H        -8.7182071911       -0.6913319914        3.2488351507
 H       -11.6006557028       -2.3636964183        1.7564248869
 H       -10.1309782575       -2.4326686017        2.7715006774
 H        -9.7890109177       -2.6878610454        1.2619589290
 H       -15.7067796156        4.9056441773       -0.3276532243
 H       -16.3938434596        3.5365892971        0.1463792226
 H       -15.0219951081        3.4700031544       -1.0952869755
 H       -13.5481468380        5.4105340100       -0.0539027038
 H       -12.5092075573        4.9768664163        1.2511410740
 H       -14.2553765320        5.6587569326        1.5831861235
 H       -11.5055932095        4.1333086572        8.4821363351
 H       -10.7579854526        2.9037787777        7.4110786837
 H       -11.9627815761        2.2921068189        8.5087361354
 H       -14.8449678827        3.8129560279        7.2130380108
 H       -14.0754039249        5.5598682604        7.1794485049
 H       -13.8035178592        4.4376356611        8.5217506335
 H        -7.4096658263        7.2279123453        3.2644394721
 H        -8.7643663629        7.6507251921        4.1101591663
 H        -8.4767037665        8.4152006657        2.5127127884
 H       -11.0307210735        7.8499484416        2.6862189052
 H       -11.1915714377        6.4709311192        1.5645400046
 H       -10.3241013245        7.6782691242        1.0040657473
 H        -6.3923544737        1.4625307768       -1.7029619407
 H        -5.1574789804        1.9412688378       -0.5534664640
 H        -4.7921315880        1.6638829084       -2.3175627791
 H        -3.7665982940        3.9764436151       -2.3647328554
 H        -3.9149436468        3.9124211846       -0.7070584425
 H        -4.5126611100        5.4588507770       -1.5613046648
 H        -5.2249635302        6.9304260857       -7.9545929753
 H        -5.6898620794        6.6672139620       -9.7050620356
 H        -4.1308036249        6.0485944729       -9.1622742760
 H        -7.7919770643        5.7077620084       -7.3788491941
 H        -7.6851354336        4.1041945007       -7.7100323194
 H        -7.7733456060        5.2299447945       -9.0969284438
 Na       -9.9579314486        2.9643206410        0.5401629058
