117

 C        -4.1577490992        2.7587650621       -9.5264672612
 C        -5.6112636601        3.0566457678       -9.1042110500
 O        -6.5083097658        2.5911977423       -9.7548171750
 C        -5.9077739392        4.3436438406       -8.2787565558
 C        -5.3672842348        4.1519362491       -6.8723044818
 O        -4.2133248153        3.8562611009       -6.6981677156
 C        -6.4332696859        4.0363234944       -5.4152125110
 C        -5.6062709660        4.0570288746       -4.1637641463
 C        -6.4515156470        4.0977595415       -2.9563627255
 O        -7.5331140903        4.5933338481       -2.9870025288
 C        -5.6130521904        3.6650376051       -1.5923110385
 C        -6.7205273685        3.5918717501       -0.4767161922
 O        -7.6837535756        2.8893035249       -0.6888709874
 C        -6.5904864372        4.3813312141        0.7873640812
 C        -7.2158807788        5.8130994103        0.6996694392
 C        -8.6755045047        5.9056255969        0.8333926894
 O        -9.4148476559        5.5097353141       -0.0472030093
 C        -9.2353575464        6.5340087150        2.2153821931
 C        -9.5939445679        5.2422411351        3.0773645771
 O       -10.0027539656        4.2050181362        2.5228906302
 C        -9.8675354764        5.5572519186        4.6375281789
 C       -10.5491684249        4.4109256070        5.3383312980
 C       -11.8572843869        4.9962800057        6.1741063500
 O       -12.1060623101        6.1616569875        5.8681105649
 C       -12.9098499524        4.0927024403        7.0628497788
 C       -13.0818260577        3.0592786826        5.9901955130
 O       -12.4924129993        2.0171335882        6.1273302551
 C       -13.9981313970        3.5456213110        4.7703982489
 C       -13.3472116181        3.1166169516        3.4699558949
 C       -14.5736739170        3.1079149533        2.3884715407
 O       -15.7479552951        2.7870533314        2.6327851766
 C       -14.2397425177        3.6308177608        0.9653384099
 C       -13.1722825231        2.6560317512        0.2072618207
 O       -12.1206852526        3.0342094640       -0.3015910516
 C       -13.5413973341        1.1724499186       -0.0205622973
 C       -12.1763811694        0.3973843617       -0.0377393434
 C       -11.2592911894        0.7012782952        1.1985440617
 O       -11.3895108162        1.8196903173        1.7982502910
 C       -10.2263313119       -0.2096231632        1.5516558436
 C        -8.8835183219       -0.2010545827        0.6333729203
 O        -8.8246149109        0.6895246113       -0.1676633555
 C        -7.7714810147       -1.2241869686        0.9721092909
 C        -9.6335357380        0.2458740854        3.0969523800
 C       -10.8569592415       -1.6354977413        1.7478287103
 C       -15.3703860018        3.8219558201       -0.1129841256
 C       -13.6896397200        5.1033524304        0.9060894015
 C       -12.2120404764        3.6401135880        8.3535515874
 C       -14.1129337647        5.1251082480        7.2851171551
 C        -8.1691594074        7.3375403247        3.0657049417
 C       -10.5282659636        7.3670275116        1.8557556308
 C        -4.9787271076        2.2191458141       -1.7632183601
 C        -4.4431082745        4.6029344873       -1.2922462970
 C        -5.1649796564        5.5189750523       -8.7979674119
 C        -7.5041687224        4.4108285816       -8.3057346330
 H        -4.0263735923        1.7656297854       -9.7136760512
 H        -3.3738931810        3.2160423390       -8.9227455593
 H        -4.2295247769        3.2581723757      -10.4862712017
 H        -7.1236893817        3.2248592125       -5.4625202373
 H        -7.1537041784        4.8804490514       -5.2771379936
 H        -4.9889642786        4.8984213397       -4.3739693995
 H        -4.8921698118        3.1593638161       -4.1335738304
 H        -5.4685645183        4.5344025319        1.0021528362
 H        -6.9517903633        3.8272148529        1.6144396780
 H        -6.8260671509        6.1837972605       -0.2355150715
 H        -6.7014427306        6.3822741574        1.3935963308
 H       -10.7046727496        6.4291441384        4.8377751938
 H        -8.9304568747        5.6884579892        5.0392814145
 H        -9.9143688279        3.9991283443        6.1456921796
 H       -10.9998226639        3.6252887098        4.6385217114
 H       -13.8601378327        4.6289373864        4.7259668928
 H       -15.1043804323        3.2413105161        4.7641089383
 H       -13.0724230671        2.0038820483        3.5442820296
 H       -12.5646450204        3.8322960810        3.0825342422
 H       -14.2637297653        0.8855693791       -0.9744944496
 H       -14.2481286978        0.9621375563        0.7963158019
 H       -11.6752630732        0.6875440969       -0.9315059654
 H       -12.4546817401       -0.6487509961       -0.1848288487
 H        -8.1931739501       -2.1779248509        0.7431116131
 H        -7.4816794569       -1.3161938326        2.0710644304
 H        -6.9417916661       -1.2329266785        0.2276930802
 H       -10.4914188871        0.7433465744        3.5900475655
 H        -8.8693784149        1.0094743233        2.9462167351
 H        -9.2540737418       -0.5376676783        3.7293302420
 H       -11.1317185568       -1.9397055086        0.6729777905
 H       -11.8012752166       -1.5073448153        2.1392444622
 H       -10.3162892136       -2.3954849713        2.3066541260
 H       -14.9623310135        3.5960386958       -1.1700291797
 H       -15.8030746239        4.8228945145       -0.2524568831
 H       -16.2074040724        3.0865905948        0.1621595359
 H       -13.4258334089        5.3259179605       -0.0823459188
 H       -12.7845802041        5.1232562229        1.4935111892
 H       -14.5008595219        5.5976841228        1.4191682531
 H       -11.5472631512        4.4166447249        8.7391348895
 H       -11.3546188270        2.8864958487        8.0039733254
 H       -12.8638308646        3.3357212097        9.1497548052
 H       -14.7048406501        5.2114391924        6.3691179334
 H       -13.9644075874        6.1121937710        7.6604055093
 H       -14.7623230092        4.5229569116        7.9524669832
 H        -7.3901233412        6.7590525012        3.5667634086
 H        -8.7378843137        7.6259567375        3.8797621180
 H        -7.7598838014        8.2381918929        2.6329665008
 H       -11.1679785317        7.5825995078        2.7038091234
 H       -11.1053030860        6.9153441462        0.9556286068
 H       -10.1477245884        8.3736161834        1.4867930329
 H        -5.6016587551        1.5555130958       -2.3366466759
 H        -4.7093283399        1.8978650517       -0.7880475143
 H        -3.9550258810        2.3588616839       -2.2008341203
 H        -3.8504691711        4.6879477409       -2.1707777393
 H        -3.8146269466        4.4465711528       -0.3989262476
 H        -4.8932232659        5.4985069256       -0.9175174025
 H        -5.7039387040        6.2995562853       -8.2401822693
 H        -5.2566618741        5.7823751770       -9.7687002472
 H        -4.1192120339        5.5446936094       -8.5188822473
 H        -7.7942702193        5.0570874707       -7.4042093552
 H        -7.8682375894        3.3594281205       -8.2560517015
 H        -7.8125680381        4.8652142769       -9.2406483416
 Na       -9.9097735962        3.3357165506        0.2732257404
