117

 C       -11.1373595664       -0.2317979755        8.2376963851
 C        -9.7602111536        0.0086316196        8.9229274671
 O        -9.5561785823        0.9139270980        9.6849186797
 C        -8.6831284818       -1.1945727805        8.6554948946
 C        -8.7355060014       -1.4142628262        7.0960888709
 O        -9.6120080824       -2.0732151918        6.5252888473
 C        -7.7525599309       -0.6674762621        6.2556905533
 C        -8.2332608149       -0.6042267456        4.7956742082
 C        -6.9401471791       -0.5077184779        3.9548900439
 O        -5.9055004499       -0.9894563036        4.3905098499
 C        -6.8419375531        0.2055620699        2.4418900541
 C        -7.4247626068        1.6591159028        2.4956330862
 O        -8.1168471203        2.1532660697        3.3984283943
 C        -7.2305131799        2.4262589184        1.1816073714
 C        -7.4233912151        3.9009598332        1.5766289708
 C        -8.7178983656        4.6711565359        1.0333904816
 O        -9.0213893036        4.5882572572       -0.1110140381
 C        -9.6746013961        5.5929917218        1.8724014699
 C       -11.0194032375        5.5436117191        0.9688765845
 O       -11.4046577918        6.4575702713        0.3065934000
 C       -11.7592314682        4.1501600490        1.0079472058
 C       -12.4857780403        3.9058940460       -0.3072699702
 C       -11.7693545603        2.8066996759       -1.1760807007
 O       -10.7648144824        2.2508406806       -0.7069479222
 C       -12.4016759183        2.5267590512       -2.6359042849
 C       -11.3157623900        3.0964764824       -3.6960747726
 O       -10.6998733657        4.1162014964       -3.4425160874
 C       -10.9634235899        2.4566543257       -5.0802239152
 C       -10.4137101616        3.4122325173       -6.0400069840
 C       -11.5037145161        4.0935840245       -6.8326327710
 O       -12.6969900364        3.8541430596       -6.8050600617
 C       -10.9921363189        5.5024400594       -7.4724697796
 C       -10.7611737717        6.5185224548       -6.3024432199
 O        -9.7098061372        6.4607649672       -5.6906988061
 C       -11.8100105301        7.5888318306       -5.8323162804
 C       -11.2281055914        8.6530990555       -4.9520199176
 C       -10.7800664110        8.1965307065       -3.5063164757
 O       -11.4759401636        7.2323644181       -3.0885553370
 C        -9.5987053462        8.8857190649       -2.7540074775
 C        -8.3649283602        7.8817642432       -2.5003926682
 O        -8.4797971420        6.9995750144       -1.6847284121
 C        -7.0543871492        8.1129974574       -3.2610879277
 C        -9.1932749365       10.1269103395       -3.5292609745
 C       -10.1103106018        9.3216320967       -1.3013347909
 C        -9.6463031013        5.2331570062       -8.3015448770
 C       -12.1484783165        6.0484687535       -8.3648951260
 C       -12.6196678290        0.9745106503       -2.9416410812
 C       -13.8024043663        3.2362369663       -2.8553584954
 C        -9.8937237424        4.8857594901        3.2792456153
 C        -9.0055742226        7.0077159123        2.1710450140
 C        -5.4558528002        0.0629655886        1.8632648658
 C        -7.7822308764       -0.5696212880        1.4876926375
 C        -7.3261064838       -0.6926968783        9.1157022133
 C        -9.0526567122       -2.5565116339        9.3267237447
 H       -11.4180049391       -1.1905277066        8.0516908517
 H       -11.0558780778        0.4295022169        7.3916407501
 H       -11.8894561981        0.1159313513        8.9074345109
 H        -6.8369768902       -1.3075465576        6.2528262070
 H        -7.6817299791        0.2878328911        6.6549389782
 H        -8.9056974468        0.3005821883        4.6026832971
 H        -8.8353018503       -1.5464958489        4.4915812302
 H        -8.0685025440        2.1374676440        0.4954529010
 H        -6.2472945578        2.3147290427        0.6184410686
 H        -6.5289956797        4.4256363010        1.2471188267
 H        -7.4043790006        4.0035681426        2.6933597981
 H       -12.2766220451        4.0782838612        1.8844449770
 H       -11.0263500831        3.3599498193        1.2373739065
 H       -12.5933707841        4.8876682275       -0.7942671391
 H       -13.4892138225        3.5507183961       -0.2474202152
 H       -11.7645114037        1.7930066618       -5.4777486183
 H       -10.0929399708        1.8239169446       -4.8405404681
 H        -9.7484549426        2.9471606904       -6.7970172749
 H        -9.8386703673        4.1981167090       -5.5924249663
 H       -12.6279142071        7.0453543657       -5.2696667926
 H       -12.2358086082        8.0314650422       -6.7510659365
 H       -11.9206540024        9.4402868136       -4.7785897853
 H       -10.3538179978        9.0538028654       -5.4736453584
 H        -7.1824729405        8.9059122731       -3.9987743371
 H        -6.7514977231        7.0998181516       -3.7180322499
 H        -6.2528446504        8.4264047315       -2.5460630491
 H       -10.1937311745       10.6523152914       -3.8079672023
 H        -8.7636418738        9.9627782697       -4.4930328600
 H        -8.5137927319       10.8511064724       -3.0630953995
 H       -10.3868256897        8.3854216617       -0.7815543283
 H       -10.9778698510       10.0182646923       -1.2908663174
 H        -9.2067086555        9.7668506912       -0.9646652279
 H        -9.9098995926        5.0603175601       -9.3671249826
 H        -8.9827271536        4.3491355873       -8.1297234282
 H        -8.9505426646        6.0748200804       -8.2698130542
 H       -12.6045676218        5.3759549355       -9.1212239307
 H       -11.7993259672        6.8908667014       -8.9584020131
 H       -12.9612657727        6.2594423659       -7.6898616613
 H       -13.3404265902        0.5722076079       -2.1993797236
 H       -11.7319276126        0.3402910411       -2.8879786849
 H       -13.1024309083        0.9662982479       -3.9331785268
 H       -13.8047824487        4.2209210967       -2.4068559234
 H       -14.6364540020        2.5398765402       -2.5407869976
 H       -13.8826003901        3.4470184319       -3.9592154629
 H        -9.8831408986        3.7676142282        3.2992882929
 H       -10.8292160237        5.1257763537        3.7850171105
 H        -9.1784113699        5.1997518608        4.0321406000
 H        -9.0049251363        7.7494351765        1.3136986577
 H        -7.9324316293        6.8981550497        2.3651750158
 H        -9.4402161281        7.5698060139        3.0223226788
 H        -5.2948352130       -0.9713314959        1.6026559968
 H        -4.6737700313        0.3172985647        2.6205501312
 H        -5.2303216272        0.6291167520        0.9377691063
 H        -8.8327994917       -0.1415477574        1.5175625338
 H        -7.8553017790       -1.6306233105        1.7109012413
 H        -7.3197937316       -0.5040440836        0.4588975237
 H        -7.0222670784        0.1685133622        8.5353243354
 H        -6.6297045865       -1.5280359502        8.9929204607
 H        -7.4805405290       -0.3876540227       10.1353176483
 H       -10.1073419728       -2.7166461892        9.1013149650
 H        -8.8880456961       -2.4863768511       10.4075846164
 H        -8.4928625513       -3.4161985065        9.0209547990
 Na      -10.3694868172        5.7138043873       -1.6220768111
