117

 C        -4.2126904996        2.3733233129       -9.2620810469
 C        -5.7189267057        2.5770066499       -9.1561025635
 O        -6.5738066554        1.9653867085       -9.7166541210
 C        -6.0937746563        4.0058889218       -8.1630676693
 C        -5.3784475044        3.7913376339       -6.8634054810
 O        -4.2129447282        3.9004727156       -6.8065374706
 C        -6.0978319193        3.3497729566       -5.4893301105
 C        -5.5419915976        4.2809384057       -4.3106337307
 C        -6.4710912708        4.2309237897       -2.9234505345
 O        -7.6413693993        4.4676714028       -2.7243068518
 C        -5.4936538129        3.7233387644       -1.6174145898
 C        -6.6421944526        3.5736014078       -0.5501319195
 O        -7.5984658977        2.9438932122       -0.8861520110
 C        -6.6266319759        4.3405707742        0.8141744040
 C        -6.9261103522        5.9067694640        0.6722347791
 C        -8.4371866302        6.1207933518        0.7111888679
 O        -9.2767713033        5.8286369362       -0.1932619061
 C        -8.9819312760        6.5096442387        2.1799135470
 C        -9.3698379516        5.2530388750        3.0341584796
 O        -9.6147299930        4.2034420919        2.4989211269
 C        -9.6104281119        5.5964795533        4.5614196087
 C       -10.7870891002        4.6763870624        5.1454595068
 C       -11.8318731089        5.5294142760        6.0674164987
 O       -12.0426146547        6.7354856101        6.0967339463
 C       -12.8247605645        4.5455504736        6.8846272786
 C       -13.2362998407        3.3913861981        5.8783370496
 O       -12.6803149107        2.3247620586        5.9137909437
 C       -14.2001297328        3.6934130634        4.7317690661
 C       -13.8147855980        2.7034161237        3.4309740576
 C       -14.7742326846        3.0293318364        2.2626996858
 O       -15.9811156245        3.0717170529        2.5385652929
 C       -14.2329720353        3.6786737587        0.7850973816
 C       -13.1164339084        2.8412924776        0.2132706311
 O       -12.1448849003        3.3036710550       -0.3010753122
 C       -13.4605932887        1.3570913362        0.1187792704
 C       -12.2454008750        0.4129983674        0.0936126979
 C       -11.3175591201        0.5846230078        1.2923481913
 O       -11.1734414279        1.7047715256        1.8032129526
 C       -10.1927708633       -0.4804156367        1.8328423210
 C        -9.0756128512       -0.3031321832        0.8407650137
 O        -8.9169319498        0.6962750733        0.1585576236
 C        -8.0921618059       -1.4097134160        0.6658742089
 C        -9.7302931698        0.0581446461        3.2200541846
 C       -10.7145577024       -1.9588344553        2.0072195660
 C       -15.5231560680        3.7732654314       -0.0601507297
 C       -13.9993964904        5.1638838445        1.2627996552
 C       -11.9097577707        4.0127566157        7.9541147770
 C       -14.1221046276        5.2113883663        7.4080172861
 C        -8.1180545857        7.4324252847        3.0516851688
 C       -10.4080367930        7.3281547904        2.0059048343
 C        -4.9071130289        2.3323165099       -1.8427688302
 C        -4.4715798914        4.8582034358       -1.2957322521
 C        -5.4265582939        5.2073999205       -8.7416668420
 C        -7.5649712741        4.2988115856       -8.1643420810
 H        -4.0247631179        1.6699528861      -10.0602753340
 H        -3.9514086897        1.9350441507       -8.2873204824
 H        -3.6404884827        3.3772269775       -9.2843786885
 H        -5.7422308286        2.2432727571       -5.2742862929
 H        -7.1685748479        3.3064126690       -5.5100175963
 H        -5.5816160790        5.3436006147       -4.7249210543
 H        -4.5158706486        3.9626591825       -4.2145071722
 H        -5.6079036604        4.1868525677        1.3163837980
 H        -7.3537343924        3.9333873856        1.5030402582
 H        -6.4109973501        6.3040963325       -0.2689733710
 H        -6.4777316552        6.2912225119        1.6152193962
 H        -9.9091401468        6.7448930137        4.6584015664
 H        -8.7903518321        5.3671143386        5.1455762660
 H       -10.2428030281        3.8625297386        5.6634198023
 H       -11.4305023572        4.2486655996        4.3624710187
 H       -13.9380585125        4.7026711539        4.5157654782
 H       -15.1737636881        3.5402964870        5.1243612702
 H       -13.9335262518        1.6697092201        3.7079364359
 H       -12.7915934970        2.9841334769        3.3302954672
 H       -14.0171694164        1.4381776924       -0.8710036671
 H       -14.0968456104        1.1089572742        0.8850845820
 H       -11.5900355153        0.6203033209       -0.7341339091
 H       -12.5193556297       -0.7074052392        0.1200431761
 H        -8.4544647902       -2.3411441966        0.2757222319
 H        -7.7945338924       -1.6819779306        1.6405516807
 H        -7.3389509625       -1.2067365269       -0.0556255478
 H       -10.4912821336        0.2209907807        3.9921367793
 H        -9.0460150922        0.8863101846        3.1017599076
 H        -9.1178529459       -0.7893372749        3.5341784184
 H        -9.8428198864       -2.6118430243        2.3019754188
 H       -11.3572469734       -2.4645206213        1.3699165059
 H       -11.1448577930       -1.8098150108        2.9887386714
 H       -15.4946324443        2.9868671067       -0.7908650890
 H       -15.3363043370        4.6988309304       -0.6257944274
 H       -16.4038334458        3.9272580083        0.4571091843
 H       -13.9243208419        5.6451133405        0.3096474314
 H       -13.1263425448        5.2074053297        1.9957695524
 H       -14.9290959623        5.4447279355        1.7663057412
 H       -11.6057550692        4.7685299121        8.6127247973
 H       -10.9775763318        3.7203036675        7.4086148298
 H       -12.3179695182        3.2605212892        8.5102244540
 H       -13.8819326236        6.2631517404        7.3645559459
 H       -14.0544702479        5.1810546238        8.4950079374
 H       -15.0841091366        4.9425819858        7.0975597615
 H        -7.3412912220        6.8185141902        3.6053345999
 H        -8.6259617097        8.1521215818        3.6645065582
 H        -7.5134987030        8.0981522715        2.3706438803
 H       -10.7546032493        7.9186747116        2.7757287647
 H       -11.1458105692        6.5491122569        1.8747385411
 H       -10.2980382064        8.0501052999        1.1584334815
 H        -5.7113788716        1.7131367333       -2.1454421104
 H        -4.5402029392        1.9119692817       -0.8600219324
 H        -4.0862272398        2.3779389897       -2.6611748928
 H        -3.6730500832        4.7216331326       -2.0441326441
 H        -4.1481924880        4.8597144160       -0.2796965023
 H        -4.8255394542        5.8945780088       -1.3745714802
 H        -5.7431930532        6.1748018020       -8.3091344636
 H        -5.7212182839        5.2588626696       -9.7701681806
 H        -4.3005339666        5.1323235779       -8.7011185845
 H        -7.7053896187        5.4158514387       -7.8744649758
 H        -8.0873620407        3.4772780443       -7.7120722434
 H        -8.0267052326        4.1987817172       -9.1646647139
 Na       -9.8118035353        3.0942186302        0.0133642331
