117

 C        -4.2541133176        2.1397334485       -9.1811766289
 C        -5.7401660052        2.6912382973       -9.0301068274
 O        -6.5948215834        1.9570836395       -9.4753875389
 C        -6.0993241876        3.8805439277       -8.2023885500
 C        -5.2971811192        3.6865425866       -6.8705643768
 O        -4.0670523563        3.8241225254       -6.8612730053
 C        -5.9325934348        3.3078530229       -5.4320844423
 C        -5.6675859846        4.2875583935       -4.2489515564
 C        -6.4092599977        4.2163041280       -2.9954006559
 O        -7.5541953549        4.4827254766       -2.9554324490
 C        -5.5787617917        3.7454324371       -1.7356445787
 C        -6.6819777006        3.7054409147       -0.5724566988
 O        -7.6551718371        2.9663156894       -0.7594930358
 C        -6.6006844685        4.3644159261        0.7750053711
 C        -6.8777299303        5.8749881402        0.6633858220
 C        -8.4577149794        6.0740457776        0.8455784913
 O        -9.1555873539        5.7623944976       -0.0918918531
 C        -8.9745851273        6.6736982339        2.0946239270
 C        -9.4110645141        5.4294571123        3.0143137800
 O        -9.4906962329        4.2809305175        2.5417694607
 C        -9.6434067535        5.6518054493        4.4877559543
 C       -10.9213721821        4.8381240566        5.0144059921
 C       -11.9120471921        5.5372515676        5.8329848179
 O       -11.8656526381        6.7181201092        6.1216061565
 C       -12.7918150785        4.6235900103        6.7716926055
 C       -13.2013500959        3.4457835619        5.8095228541
 O       -12.7346230995        2.3556549896        5.9988363045
 C       -14.2292688534        3.6789564725        4.5955832059
 C       -13.8669794295        2.7589304603        3.4033341783
 C       -14.8807206353        3.1062866552        2.3201421908
 O       -16.0508255941        3.0519842169        2.5371531940
 C       -14.3661129138        3.7405626824        0.9318745323
 C       -13.1744596648        2.8105249501        0.2473529464
 O       -12.1783661691        3.3283466137       -0.2238764213
 C       -13.4221997413        1.2452727682        0.0872801907
 C       -12.1737493923        0.3955269932        0.2236021417
 C       -11.2155720725        0.6407730077        1.4485498874
 O       -11.1435751272        1.7801644160        1.9742691178
 C       -10.2367285928       -0.4791583948        1.9485608450
 C        -9.1170925608       -0.3725693085        0.7927740774
 O        -9.0017847741        0.7082185928        0.2159805593
 C        -8.1573060428       -1.5690608031        0.5829332107
 C        -9.7339013422       -0.0241539905        3.3254653222
 C       -10.7562045401       -1.9296426377        1.9491401477
 C       -15.4396799308        3.8602358111       -0.2708007967
 C       -14.1180612368        5.2314221672        1.3837848499
 C       -11.9079735854        3.9654676881        7.8150294159
 C       -13.9641575313        5.4129754035        7.3623822780
 C        -7.9118027995        7.5523685674        2.8601554421
 C       -10.3913624068        7.1949413450        1.9862625296
 C        -4.8633994033        2.4936509340       -1.9970909112
 C        -4.4623969559        4.7867965578       -1.3794873928
 C        -5.4113729302        5.1770042221       -8.8810789467
 C        -7.7653803238        3.9970294488       -8.0700349183
 H        -4.2873481929        1.5528254184      -10.0721500549
 H        -4.0324857925        1.4588166369       -8.2978722096
 H        -3.5536750488        2.8717156119       -9.1629995807
 H        -5.7042258100        2.3620858000       -5.1461842270
 H        -7.0889933707        3.4099454912       -5.5825012613
 H        -5.8107172353        5.2879678952       -4.6225269378
 H        -4.5409397461        4.1084009393       -4.0349607310
 H        -5.4943463398        4.2003100182        1.1015897915
 H        -7.2364735082        3.9316699198        1.5636960689
 H        -6.6032730699        6.2283076774       -0.3286879083
 H        -6.3094291690        6.2362850806        1.4509578629
 H        -9.7577226991        6.7997702554        4.6280151442
 H        -8.7703277202        5.3067984269        5.0063892982
 H       -10.5074604249        3.9280140257        5.4877067088
 H       -11.3775364937        4.4772822318        4.0073503884
 H       -14.0694360556        4.7026610472        4.4238849146
 H       -15.2184836847        3.3546742174        4.8744583477
 H       -14.1558905173        1.7534294723        3.8188545576
 H       -12.7886952172        2.8431339772        3.3423402962
 H       -13.8239541646        1.2558105758       -1.0308815372
 H       -14.1390741351        0.9163289017        0.8791183801
 H       -11.5007209930        0.5194255376       -0.6018346902
 H       -12.4712854702       -0.6147076294        0.3388750636
 H        -8.6814559253       -2.2165832951        0.0050023091
 H        -7.9165795548       -2.2468259041        1.4599246219
 H        -7.4294039586       -1.3968868367       -0.1523645933
 H       -10.3925549508       -0.4027715941        4.1366785026
 H        -9.5401160715        1.0409457651        3.3981392656
 H        -8.8185903524       -0.5718070075        3.4333810054
 H       -10.1664911053       -2.3458857308        2.7983587075
 H       -10.6497828326       -2.5364629360        1.0864898413
 H       -11.7351257792       -1.9783263259        2.3242354964
 H       -15.6086285719        2.8473627114       -0.6924779322
 H       -14.9088832258        4.4055378526       -0.9924474130
 H       -16.3386589116        4.5509252681       -0.0691622279
 H       -13.8929355041        5.6296790572        0.4237189151
 H       -13.3814706285        5.2154752073        2.1592715363
 H       -15.0950421867        5.6718195937        1.7693419889
 H       -11.7695132710        4.7280109524        8.5096612111
 H       -10.8767454860        3.6717770258        7.4642651814
 H       -12.4179990167        3.1461548017        8.3154965282
 H       -13.6144893264        6.3648609578        7.6046472027
 H       -14.2472537710        5.0577007403        8.2724502728
 H       -14.8507308587        5.4123590940        6.7118153354
 H        -7.3122234869        6.7699030061        3.3469097482
 H        -8.3207364263        8.2491633717        3.5424303036
 H        -7.1906478415        8.1417534445        2.2916974936
 H       -10.9343259312        7.5256373195        2.9001518856
 H       -10.9834219264        6.2870163193        1.6583029909
 H       -10.3994543420        8.0730884327        1.3769462622
 H        -5.4862086077        1.5158436442       -1.7924161632
 H        -4.0873978116        2.4825325048       -1.2423511069
 H        -4.4515562520        2.5426212368       -3.0176130813
 H        -3.6669539370        4.6022857816       -2.0362920240
 H        -4.1830804458        4.6926055652       -0.3006723479
 H        -4.6525580156        5.8451107499       -1.5149421321
 H        -5.6566801898        6.0688107008       -8.2807132943
 H        -5.8379454524        5.3402122983       -9.8205371153
 H        -4.3492699276        5.1185012235       -8.9952091962
 H        -8.0759382819        4.9881746113       -7.8503178231
 H        -8.0633425411        3.0233864663       -7.4944045972
 H        -8.3222394849        3.6408979684       -8.9835925400
 Na       -9.8707973018        3.0598341187        0.2208305879
