117

 C        -4.3296387160        1.8193782992       -9.1081091366
 C        -5.7913646016        2.3190180662       -8.8955673234
 O        -6.7163435782        1.6352499620       -9.2617947314
 C        -6.0762262282        3.6094109222       -8.1185418762
 C        -5.0822929023        3.5347719342       -6.8517832741
 O        -3.9069565044        3.7060519796       -6.7702172557
 C        -5.8678420368        3.4021104263       -5.4938258963
 C        -5.4123033326        4.5813583793       -4.4405279819
 C        -6.3611850828        4.3403165411       -3.2110574419
 O        -7.5858889426        4.4751543576       -3.3791828378
 C        -5.6584130925        3.8450004052       -1.9074482129
 C        -6.6842338790        3.7018417686       -0.6938843485
 O        -7.6833615193        3.0560936326       -0.7030970794
 C        -6.2978344064        4.4355040100        0.6376792588
 C        -6.8170290964        5.8839153765        0.6065917282
 C        -8.2642889623        5.9757238317        0.7124365309
 O        -9.1449563768        5.3609542948        0.0764122540
 C        -8.8545139690        6.7190640395        1.9851963811
 C        -9.2234488564        5.4964700036        2.9459696122
 O        -9.1934557619        4.3232255514        2.6445202827
 C        -9.6983333638        5.7650750336        4.4189692852
 C       -11.0491802931        4.9955221148        4.6051731585
 C       -11.7187097964        5.5279239038        5.8403635508
 O       -11.5682806260        6.7336239918        5.9756430382
 C       -12.7449724025        4.7092678696        6.6287231499
 C       -13.2300947969        3.4876370611        5.7324117771
 O       -12.9921657472        2.3038257476        5.9203579956
 C       -14.2664522775        3.8197351083        4.6190269037
 C       -14.1587042733        2.8301514556        3.3173023160
 C       -15.1130884731        3.1563367930        2.1544608188
 O       -16.3197360029        2.9089506545        2.2569773503
 C       -14.5050536532        3.7242002665        0.9106221087
 C       -13.1473600646        2.9455637841        0.5311305998
 O       -12.1246406409        3.5035495643        0.1907721836
 C       -13.3879923868        1.4448561356        0.4561118231
 C       -12.1788168076        0.5905324268        0.3999358110
 C       -11.3338029197        0.7795529730        1.6410650760
 O       -11.2523214057        1.7223318107        2.3732878108
 C       -10.2952235722       -0.4805812353        1.9813980927
 C        -9.1378965903       -0.3736475386        0.8781404993
 O        -8.9556705634        0.7138612902        0.3183722566
 C        -8.4784857914       -1.6446370273        0.4559539728
 C        -9.5246659356       -0.3183644515        3.3961994695
 C       -11.1062552004       -1.7946383190        1.9984158032
 C       -15.4725349709        3.6626044004       -0.2818575644
 C       -13.8146738324        5.0863197501        1.1583109935
 C       -11.9019243523        4.0991551353        7.8817402956
 C       -13.8100578695        5.6053939865        7.1131058930
 C        -8.0426116633        7.8650621363        2.7184980461
 C       -10.1704232685        7.4719208058        1.6345805293
 C        -5.0574970102        2.3263979814       -2.0043316200
 C        -4.6329059207        4.8655737414       -1.5998976141
 C        -5.8299877912        4.8815193651       -8.9913452622
 C        -7.6082831825        3.7825707380       -7.6805745716
 H        -4.1941984011        1.4613078442      -10.1197801285
 H        -4.1134460609        1.0698959457       -8.4242083441
 H        -3.6898224848        2.7316371912       -8.8139353826
 H        -5.3472156132        2.4515213565       -5.0076315590
 H        -6.8865089587        3.4079253327       -5.4015228520
 H        -5.6914668743        5.6220790482       -4.7903245992
 H        -4.4154396793        4.4600763144       -4.2051746933
 H        -5.2977439806        4.3920210691        0.9317608138
 H        -6.8909371151        3.8773314368        1.3490079262
 H        -6.6444471641        6.2603528168       -0.4013996330
 H        -6.4295689589        6.4379835918        1.4840120749
 H        -9.7163958906        6.7943090169        4.8117015362
 H        -8.9418948129        5.2345215142        5.0342975437
 H       -10.7079925232        3.9709309892        4.6378576985
 H       -11.4272090416        5.1306728109        3.6467814307
 H       -14.1132228290        4.9402924180        4.4536868932
 H       -15.2454724154        3.5424234238        5.0904056289
 H       -14.1637939016        1.7938870917        3.6592464139
 H       -13.0802631469        3.0405236419        3.0961710859
 H       -13.8667617105        1.3037666775       -0.4702840362
 H       -13.9766474839        1.2097100334        1.3199004343
 H       -11.4493398821        0.8744439617       -0.3844987899
 H       -12.5641699783       -0.4793347954        0.3125714731
 H        -8.6320269888       -2.2805498087       -0.5036902738
 H        -8.5062034278       -2.3068235827        1.2800435744
 H        -7.4216679486       -1.3758829031        0.1792212660
 H        -9.9859290832       -1.1314661573        3.9244998480
 H        -9.8227017747        0.6025952503        3.8959798294
 H        -8.4330028126       -0.4721301116        3.4522699915
 H       -11.2797312290       -2.1324262531        3.0542653379
 H       -10.4503943001       -2.5092672974        1.4975502472
 H       -12.0902557778       -1.8344771980        1.4615226185
 H       -16.2420954782        2.9450105757       -0.0330021344
 H       -15.0256700669        3.4935138516       -1.3369338415
 H       -15.8033063187        4.6522261735       -0.2789747637
 H       -13.2164693304        5.3201219390        0.2926883276
 H       -13.2881328205        4.8473298753        2.1065867059
 H       -14.5501686085        5.7975430828        1.3404621714
 H       -11.4802640615        4.8684155140        8.6331444910
 H       -11.1465034536        3.3383375666        7.5463880120
 H       -12.6073776926        3.4684526680        8.4465115312
 H       -13.5388136472        6.0249858453        8.1454271243
 H       -14.8103270626        5.0416741958        7.1545270925
 H       -14.0012829455        6.3617043864        6.3755511865
 H        -7.0025654139        7.7319128316        2.9394778594
 H        -8.6948448160        8.1276977648        3.5352336950
 H        -8.0517318464        8.7167434242        2.0560987489
 H       -10.8299024675        7.3170298415        2.4581068061
 H       -10.7023271374        6.9126683045        0.9219546022
 H       -10.0389057574        8.5937707545        1.5878745763
 H        -5.7618076366        1.7136949147       -1.6665580174
 H        -4.2460578711        2.1471656455       -1.3100820443
 H        -4.8659322345        2.0694822775       -3.0272569279
 H        -4.0178558566        5.3018191802       -2.4480855360
 H        -4.0147783808        4.5733817797       -0.7465622358
 H        -5.1335519106        5.8571806157       -1.4050339045
 H        -5.8419743018        5.7450241875       -8.3907254340
 H        -6.3949424742        4.9999261929       -9.9157575135
 H        -4.7447602585        4.8144723146       -9.2378846221
 H        -7.6355844373        4.5468787908       -6.8701556832
 H        -7.8804524448        2.8584706454       -7.3924348165
 H        -8.2950603582        4.1358239174       -8.3800356363
 Na       -9.7644875652        3.1583082634        0.7543467567
