117

 C        -4.3884862078        1.6917395592       -9.1595870925
 C        -5.8903845556        1.9591110540       -8.6896711469
 O        -6.8529642480        1.2995790378       -9.0496067587
 C        -6.1095815993        3.3235737712       -8.0783530844
 C        -5.1510182982        3.3832851126       -6.8824755579
 O        -3.9422613304        3.7472326462       -7.1453370413
 C        -5.4962035881        3.1467518339       -5.4355105159
 C        -5.5458540905        4.4902630364       -4.6411297864
 C        -6.3891077388        4.4423854638       -3.3052907269
 O        -7.5939751321        4.4428436145       -3.3144789975
 C        -5.7155082398        3.9244619332       -1.9301320920
 C        -6.6813767176        3.8535205466       -0.7502993611
 O        -7.7323659752        3.1791072196       -0.9068296409
 C        -6.2931073966        4.5943729405        0.5795781993
 C        -6.6938424550        6.1075073211        0.5507599283
 C        -8.2544288293        6.0854765811        0.6975878567
 O        -8.8537841764        5.3830682951        0.0012678229
 C        -8.9939438698        6.7553895276        1.8855548072
 C        -9.1365180570        5.5884331233        2.9560101784
 O        -8.5944769107        4.5313223282        2.6358172754
 C        -9.6924476443        5.9433110480        4.3364136985
 C       -11.0038861171        5.0826186970        4.6598898750
 C       -11.7240648354        5.6505300118        5.7656276790
 O       -11.4765479797        6.7496192093        6.1917963610
 C       -12.8771702892        4.6999249468        6.5475457877
 C       -13.4554672148        3.6289337172        5.7329669625
 O       -13.1057572393        2.4695758975        5.8432878869
 C       -14.3481156332        4.0117285463        4.6353613621
 C       -14.4662929106        3.0054789676        3.4775613684
 C       -15.0864350778        3.3248794478        2.1874738021
 O       -16.1753225086        2.7963146348        2.0248187439
 C       -14.4782291080        3.9181246867        0.9349015287
 C       -13.1610165800        2.9722841141        0.8006291435
 O       -12.0132369283        3.4091678946        0.7724259772
 C       -13.4416907167        1.4809940022        0.5631253527
 C       -11.9524097620        0.7721170503        0.4493431745
 C       -11.3020162593        0.6286535830        1.9417750795
 O       -11.3963307213        1.5687131046        2.7531146270
 C       -10.3875305253       -0.5816293266        2.0604023905
 C        -9.3595835683       -0.4101942273        0.9020001458
 O        -8.9867532735        0.6886515459        0.5751908782
 C        -8.5452000735       -1.5983032755        0.3946948986
 C        -9.4278037239       -0.3953537564        3.3404849970
 C       -11.2523706515       -1.8938000203        2.1042580600
 C       -15.3975176162        3.8663400379       -0.3070601277
 C       -14.1469614226        5.4931477998        0.9233406791
 C       -12.0053460874        4.1785756028        7.6904933099
 C       -14.0327610703        5.6745359832        7.1040686222
 C        -8.0018212416        7.7488518038        2.5623316338
 C       -10.3040464814        7.3454290822        1.3119000092
 C        -5.2390316783        2.4235381879       -2.2559560531
 C        -4.3320276739        4.7440326225       -1.6465744998
 C        -5.6802997868        4.4489002019       -9.0609101733
 C        -7.6363787912        3.5545667792       -7.6201894641
 H        -4.6582395696        1.2432795806      -10.1387801962
 H        -3.8749624215        0.8627631631       -8.5818890975
 H        -3.7537764989        2.5381824202       -9.2132595344
 H        -4.7286944816        2.6191818081       -5.0243376002
 H        -6.5799529748        2.7529207585       -5.2877247607
 H        -5.9790836924        5.2891543583       -5.1979237715
 H        -4.4590998639        4.7043895041       -4.2251003204
 H        -5.1802461320        4.4912704330        0.6515982452
 H        -6.7697375807        4.0344970223        1.4358474360
 H        -6.4652101948        6.4631114501       -0.4693272170
 H        -6.1944003627        6.5654443534        1.4076908880
 H        -9.9135113742        6.9704261265        4.5704956822
 H        -8.8711510443        5.6990647654        5.1178034224
 H       -10.6549708223        4.0590983397        4.7248151642
 H       -11.5638654680        5.1860560231        3.6817581192
 H       -14.0887325551        5.0080475948        4.2887465566
 H       -15.3388670496        4.0676901104        5.0433951066
 H       -15.0346590339        2.1140434379        3.8102341963
 H       -13.4910061611        2.5458471119        3.4515313361
 H       -13.8985824972        1.3330832305       -0.4261149203
 H       -14.0578601026        1.1735463272        1.5232005170
 H       -11.2352904437        1.3936174284       -0.1080206284
 H       -12.1099973471       -0.1514971634       -0.0052937952
 H        -9.0205640416       -1.8153279559       -0.5331147161
 H        -8.6657869799       -2.5804153615        0.8612512097
 H        -7.5588340273       -1.4664427145        0.0488197660
 H        -9.5242277861       -1.1709398215        4.0974619489
 H        -9.5947327170        0.6082681954        3.7673601228
 H        -8.4306498495       -0.4337276222        2.9140565303
 H       -12.1209524137       -1.5747154190        2.5316081088
 H       -10.8948334576       -2.8463819245        2.5662398377
 H       -11.4860959846       -2.0378688984        1.0542603160
 H       -16.1626852007        3.1922013566       -0.0001216602
 H       -14.8965274863        3.4612274236       -1.0969276092
 H       -15.7750830956        4.8533457721       -0.6260262564
 H       -14.0447787384        5.7377380855       -0.1765585767
 H       -13.3204430036        5.7876170869        1.5698633224
 H       -15.1637577438        5.9050655014        1.2398909322
 H       -11.3802609105        4.9850060875        7.9946378732
 H       -11.5560182190        3.3511134259        7.3593252842
 H       -12.5783149141        3.7562346426        8.5106129143
 H       -13.9386262079        5.9489648103        8.1326493359
 H       -14.9826608926        5.2584379580        6.8560537587
 H       -14.0233383817        6.6105710251        6.4705525561
 H        -7.1939684185        7.2426689842        3.1556774755
 H        -8.7532978366        8.2083114000        3.2813571734
 H        -7.4597378857        8.4672576640        1.9000527291
 H       -10.8255662541        7.7330698878        2.2233413819
 H       -11.0239745154        6.6458336930        0.9079734164
 H       -10.0247421564        8.1629278405        0.7502183155
 H        -5.9450382713        1.7107027385       -2.8433204330
 H        -5.1720608455        1.8706995548       -1.2953835750
 H        -4.2705401632        2.4602470348       -2.7621525162
 H        -3.6073314391        4.5857049978       -2.4212219934
 H        -3.6929133222        4.3558207425       -0.7899914606
 H        -4.3575326566        5.8064816222       -1.7986205522
 H        -5.8936169466        5.5085246453       -8.7135928728
 H        -6.0655659048        4.2791605423      -10.1015819345
 H        -4.6039884795        4.4273279779       -9.1056810672
 H        -7.6546214895        4.5317308388       -7.0885471855
 H        -8.0165354792        2.6721621060       -6.9134492262
 H        -8.3075522898        3.7302703215       -8.5638848945
 Na       -9.4975414571        2.9529096425        0.9264113186
