117

 C        -4.6696276176        1.1730671740       -9.3174677175
 C        -5.9066299217        1.6312042716       -8.5976589588
 O        -6.8680319065        0.8976473955       -8.6792298296
 C        -6.1140531368        3.1489049618       -8.2312042198
 C        -4.9448757047        3.4092324522       -7.0108556182
 O        -3.8666128903        3.7524918309       -7.1803374404
 C        -5.3285081826        2.9970881690       -5.5528155420
 C        -5.7960896967        4.3585467382       -4.8585700433
 C        -6.4363000908        4.2963288020       -3.3331595623
 O        -7.5618854723        4.6387218172       -3.2178387582
 C        -5.5217545679        3.6977035357       -1.9985122476
 C        -6.5591542618        3.8217419640       -0.8048313872
 O        -7.5905324393        3.2566329169       -0.8828896167
 C        -6.0847065132        4.6733711219        0.4547715933
 C        -6.6544844428        6.1101186209        0.3953402473
 C        -8.1868327620        6.1440524738        0.5677866037
 O        -8.9458346895        5.7273398276       -0.3856202348
 C        -8.8465909775        6.7630833059        1.8567154895
 C        -9.0040242601        5.5882136747        3.0241753296
 O        -8.4719978574        4.4836779664        2.9026798622
 C        -9.8743851295        6.0474077489        4.2196833269
 C       -11.0475386280        5.1570866628        4.7804121913
 C       -11.8031073517        5.7520667443        5.9493280049
 O       -11.5313068548        6.9029099950        6.2505234436
 C       -12.8721326475        4.8843548925        6.6206003390
 C       -13.5772832403        3.9107426625        5.6101422655
 O       -13.2127502735        2.7810992055        5.7885499680
 C       -14.4096198798        4.3527430849        4.4028545272
 C       -14.4912330130        3.1150648679        3.3712696019
 C       -15.3918352112        3.3323006544        2.0317154826
 O       -16.4875378822        2.8342508840        1.9197758326
 C       -14.3992557353        3.9445938581        0.8258942929
 C       -12.9829530237        3.3220042977        0.8925140569
 O       -11.9850066654        3.8709682494        1.3324456628
 C       -13.1025624353        1.8145885331        0.4915906674
 C       -12.0803603962        0.7243879780        0.6769156884
 C       -11.3536447394        0.6053843479        2.1149878902
 O       -11.5816248651        1.3885637417        3.0339537411
 C       -10.2686440491       -0.5487022408        2.2340405322
 C        -9.2321048746       -0.4679264714        1.0053556306
 O        -8.8163819824        0.5953691602        0.4759342878
 C        -8.8465012751       -1.6957604055        0.2206880232
 C        -9.6705433807       -0.5362514860        3.6206790861
 C       -11.0749139932       -1.9607776824        2.0807888988
 C       -15.1069734393        3.6695328348       -0.5005488103
 C       -14.1570317319        5.4598890306        1.3109291243
 C       -12.2625960001        4.1892086822        7.8160948221
 C       -13.9468989216        5.7906926717        7.2188559591
 C        -8.1979795566        8.0204020032        2.3823921954
 C       -10.2915602260        7.1081646726        1.4985777367
 C        -5.2642016003        2.2336268809       -2.2738520754
 C        -4.2756324840        4.5592732866       -1.8015421423
 C        -5.7835778406        4.2379113453       -9.3258448534
 C        -7.5911460534        3.3055622544       -7.6516144198
 H        -4.9104450502        0.6196674520      -10.1869224347
 H        -4.0841634377        0.5060389978       -8.6846432823
 H        -4.1633040343        2.0949773359       -9.5404968962
 H        -4.3599192066        2.7010908482       -5.0797203257
 H        -6.1834632800        2.3334622114       -5.5806061340
 H        -6.6998155851        4.6772747467       -5.4180741227
 H        -5.0218633776        5.0078926995       -4.8961564927
 H        -4.9880503621        4.7064788780        0.3958829877
 H        -6.3206888300        4.1616844611        1.3601458890
 H        -6.4255916927        6.6140357411       -0.5512549882
 H        -6.1821827565        6.6141780246        1.2206438228
 H       -10.4355194883        7.0199627349        3.8385264912
 H        -9.4894206045        6.5340958498        5.0639551039
 H       -10.6066453551        4.1451090823        4.9353420878
 H       -11.8271961884        5.0966738853        4.0288602855
 H       -14.2522752795        5.3413022389        3.8844117651
 H       -15.4964821743        4.4399672901        4.6558943915
 H       -15.0829065730        2.3322771361        3.8548949707
 H       -13.5128917328        2.5312019854        3.2645371630
 H       -13.3869730771        1.6821346727       -0.5757759640
 H       -13.8444604203        1.5878744716        1.1678174986
 H       -11.3124606968        0.7599539712       -0.0739704054
 H       -12.7748715292       -0.1783933156        0.4977360680
 H        -9.3509786788       -2.1613867587       -0.6326493579
 H        -8.6853017985       -2.5914675513        0.9069887069
 H        -7.7700812071       -1.6374173861       -0.0992393099
 H       -10.1227972520       -1.1043630543        4.4301558399
 H        -9.8020716047        0.5159128178        3.8021219760
 H        -8.6167917179       -0.7370466355        3.5271007188
 H       -12.2403668164       -1.8440301017        1.9951789144
 H       -10.9212413438       -2.5970260990        2.8936583753
 H       -10.6995833209       -2.4084457616        1.1990021895
 H       -15.2593565604        2.5478361575       -0.5637668846
 H       -14.4303012004        4.0147982060       -1.3479203510
 H       -16.0598639290        4.2115573557       -0.5646290452
 H       -13.4755048960        5.7643948371        0.5469327986
 H       -13.4749123790        5.3501568867        2.1834034542
 H       -15.0444689593        6.0210003959        1.4113947927
 H       -11.9054550163        5.0201581334        8.4261467409
 H       -11.4197026973        3.4194406521        7.4054257111
 H       -12.8599487028        3.4176266584        8.2843844805
 H       -13.4238941176        6.2563093628        8.0319360594
 H       -14.7332884434        5.1418227739        7.5577025655
 H       -14.2851243673        6.6324093112        6.6582426982
 H        -7.5807488037        7.8580511660        3.2733043432
 H        -8.8238781332        8.8169711350        2.5663775603
 H        -7.4938203686        8.1453748333        1.5850591874
 H       -10.7909277048        7.7802529089        2.1960688089
 H       -10.9479493882        6.1942657061        1.3673009417
 H       -10.1796016299        7.6029108109        0.4479385956
 H        -6.0546563766        1.9067591186       -2.9328947064
 H        -5.3628301292        1.6075564284       -1.4030792604
 H        -4.3095250381        2.0374556487       -2.7999524568
 H        -3.5047184897        4.5230509776       -2.5713086877
 H        -3.6320983036        4.0361453398       -1.1814462223
 H        -4.4379182312        5.6125316389       -1.6478588632
 H        -6.2813070967        5.0807164076       -8.9396428023
 H        -6.2572960082        4.0273094480      -10.2210102806
 H        -4.7476132646        4.5549844256       -9.5360570092
 H        -7.9005668040        4.3512295775       -7.6158689370
 H        -7.7570472987        2.9184053601       -6.6549376042
 H        -8.1268181344        2.9111420621       -8.4038190734
 Na       -9.2543083330        3.0251493450        0.8667793793
