117

 C        -4.7431403056        0.9616989398       -9.3579682414
 C        -5.9314788864        1.3899520136       -8.4987834394
 O        -6.7956800772        0.6048804388       -8.2392127531
 C        -6.1749968812        2.9276858828       -8.2100095749
 C        -5.0454405629        3.2339684302       -7.0859648046
 O        -3.9019521167        3.7299165969       -7.4292733054
 C        -5.3090395820        3.0593005235       -5.5323648805
 C        -5.8949845377        4.3085205243       -4.8743320077
 C        -6.5310290257        4.1334311337       -3.4424689587
 O        -7.4910048221        4.8114385606       -3.0584398931
 C        -5.5859462925        3.5368865366       -2.1995385802
 C        -6.4188967464        3.7765209484       -0.8871460511
 O        -7.4740570192        3.0891140915       -0.7157909474
 C        -5.9838172682        4.6769074782        0.2980995929
 C        -6.6941106011        6.0456782691        0.4589264037
 C        -8.3133603593        6.1376474907        0.4338160526
 O        -8.9213782048        5.7711312105       -0.4716831689
 C        -9.0219019554        6.6779682518        1.7786340197
 C        -9.1798842475        5.7070215600        3.0676898654
 O        -8.9523421726        4.5427323947        2.8582140356
 C        -9.6861720296        6.1919562359        4.3936967978
 C       -10.8561860339        5.2269100656        4.9371531496
 C       -11.7959598910        5.8776307455        5.8718068192
 O       -11.5848986298        6.9981051352        6.1836710302
 C       -13.0293120206        5.0287917483        6.6400898396
 C       -13.6857257025        3.9793691458        5.6573754515
 O       -13.2855558069        2.8265172184        5.7341978742
 C       -14.4843310479        4.4162618438        4.4603448895
 C       -14.7114507506        3.2178350762        3.5551872499
 C       -15.2439200877        3.4957172971        2.1601368566
 O       -16.3526734838        3.2161375646        1.7345369604
 C       -14.1267527862        4.1700872005        1.0485824238
 C       -12.7752108406        3.2609459214        0.9359231684
 O       -11.6848406420        3.6276185219        1.3163975867
 C       -12.9662728239        1.7961907442        0.3818626052
 C       -11.7756984956        0.8698790418        0.5896393468
 C       -11.3987698571        0.6080193403        2.0609928788
 O       -11.6751700126        1.1692530922        3.0464540040
 C       -10.3084552586       -0.6134646538        2.2035097147
 C        -9.3485503608       -0.4272555351        1.1026965703
 O        -8.8781080849        0.6727767042        0.9552175678
 C        -8.7525615502       -1.6586234139        0.3971081158
 C        -9.4353492367       -0.4752698292        3.5902273061
 C       -11.1814103523       -1.9329523259        2.1784847062
 C       -14.8280142510        3.9063613562       -0.3263511374
 C       -14.3069016558        5.6822057175        1.1933512662
 C       -12.3199121552        4.1375283493        7.7370508498
 C       -13.9304881497        6.0225668429        7.1167574467
 C        -8.2699208464        8.0165539168        2.2336783309
 C       -10.5283900859        6.9620641114        1.3616955408
 C        -5.2947125677        1.9658325591       -2.2158332827
 C        -4.2808458210        4.2844792666       -2.3491099914
 C        -5.7875795629        3.7729587805       -9.4882752944
 C        -7.4667012654        3.1834643267       -7.6082452440
 H        -5.2979075346        0.2376949370      -10.0002355767
 H        -4.0362907760        0.4004653046       -8.7910373545
 H        -4.3714674776        1.7708620387      -10.0862111660
 H        -4.3333297421        2.8165159503       -5.0848812878
 H        -6.0503484354        2.2569559262       -5.5861665379
 H        -6.7648091815        4.5304935925       -5.4873105259
 H        -5.1188191271        5.1989637273       -4.8436476980
 H        -4.9345284412        4.8014756158        0.3169569731
 H        -6.1852719093        4.0087540434        1.2048331834
 H        -6.3761557172        6.7535220521       -0.3588639764
 H        -6.1846407362        6.5078896598        1.4019935789
 H       -10.0573832296        7.1071505396        4.4967213276
 H        -8.8809039813        6.3894010675        5.1848357040
 H       -10.5531336880        4.2714588074        5.2945768518
 H       -11.5577800385        5.0560458748        4.1073415002
 H       -14.1839243520        5.3618891243        3.9889335751
 H       -15.5293977044        4.6588834417        4.6825384889
 H       -15.4015173420        2.5210086751        4.0775196148
 H       -13.8690398040        2.5508354314        3.4204376323
 H       -13.1910516009        1.9191242925       -0.6406942530
 H       -14.0134775489        1.5848249458        0.9170114818
 H       -10.8378974890        1.2507719593        0.0643840058
 H       -11.9813303095       -0.1357402681        0.2829413271
 H        -9.6978465897       -2.0977318804       -0.0082995224
 H        -8.3007451461       -2.4707424493        0.8116425398
 H        -8.1255932462       -1.4362244555       -0.4321373016
 H       -10.1692563171       -0.2552760742        4.3431133267
 H        -8.6505170199        0.3064436649        3.5842508552
 H        -9.0880276743       -1.4930867306        3.7911193180
 H       -11.8340558476       -1.9115995578        2.9730951314
 H       -10.4938557706       -2.8028074696        2.4833873713
 H       -11.6647828100       -2.1361684858        1.1811876671
 H       -14.6399612944        2.9832316635       -0.7649917937
 H       -14.4250512428        4.6718148705       -0.9830450812
 H       -15.9100495525        4.0152886716       -0.2651744566
 H       -13.8787371476        6.2596849386        0.3345059541
 H       -13.7633622520        5.9557742197        2.0640100485
 H       -15.4014703886        5.7330138675        1.3136890626
 H       -12.1673804283        4.8276947631        8.5583968241
 H       -11.4875342192        3.6214668554        7.4606353999
 H       -13.0397804730        3.3593755340        8.0060114924
 H       -13.4450705647        7.0238611294        6.9010967185
 H       -14.2504697600        5.8332660646        8.1917313045
 H       -14.7809796718        6.1433946792        6.4160085523
 H        -7.4561103353        7.6691800573        2.8233442833
 H        -8.8762461811        8.5904604185        2.9996415169
 H        -7.9233049293        8.5305712484        1.3392520256
 H       -11.2090576035        7.3958457939        2.0948239083
 H       -10.9072672613        6.0064235168        1.0640020341
 H       -10.4839298809        7.3596368838        0.3893928337
 H        -6.0573542535        1.2769581539       -1.9613138105
 H        -4.3246337926        1.7835548148       -1.6694498262
 H        -4.9340008553        1.6724227398       -3.1947836417
 H        -3.8069232107        4.1016490130       -3.3187936000
 H        -3.3380486390        4.0290981911       -1.8447025997
 H        -4.5746901297        5.3466091176       -2.2882551962
 H        -5.7830342221        4.8580880301       -9.2943276939
 H        -6.6012155670        3.6398049880      -10.2908909157
 H        -4.8523754120        3.5144722301       -9.9309275776
 H        -7.4330207630        4.1579657979       -7.0224554609
 H        -7.6550275348        2.6089432579       -6.7479820062
 H        -8.3122635527        3.2700776401       -8.3488729144
 Na       -9.2329032329        3.4214185186        0.8988363862
