117

 C        -4.8626296912        0.5374374585       -9.2467092978
 C        -5.9623831333        1.1716302493       -8.2863285463
 O        -6.6562864494        0.4170973721       -7.6542435101
 C        -6.1425761346        2.6805383411       -8.1683719545
 C        -5.0112103022        3.1718388031       -7.1400313705
 O        -4.0338956132        3.6190457426       -7.5126610898
 C        -5.3278271203        2.8940838319       -5.5278090897
 C        -6.0874445935        4.1496014278       -4.9839513477
 C        -6.4955795319        4.1132696170       -3.4129668823
 O        -7.4787865655        4.7209399798       -3.1268903200
 C        -5.6465221820        3.5295254829       -2.2579088224
 C        -6.4957921461        3.7976200844       -0.9482255542
 O        -7.3755669731        3.0776387759       -0.6565408471
 C        -5.9844958078        4.7050467754        0.1400679089
 C        -6.7548392665        6.0500678173        0.4761252460
 C        -8.2799846364        5.9892319399        0.6179967682
 O        -8.9276456751        5.2983249711       -0.2543139397
 C        -9.2030171150        6.6411915745        1.7441804598
 C        -9.3754620153        5.5915229890        2.9252356778
 O        -9.2916827013        4.3871051105        2.6882829825
 C        -9.6243848427        6.0892236592        4.3540678328
 C       -10.7015567989        5.2933494148        5.0576159123
 C       -11.7754735093        6.0532381614        5.8547115076
 O       -11.5889523735        7.2633674260        6.0140363118
 C       -12.9864548050        5.1318343007        6.5709512622
 C       -13.4714947911        3.9823215310        5.6773900840
 O       -13.3237262016        2.8121072837        5.8533490587
 C       -14.3498535064        4.3840465267        4.4984359821
 C       -14.6991569146        3.2394507921        3.4691829776
 C       -15.1125962987        3.6836740484        2.0248491730
 O       -16.2393391563        3.6539159732        1.6264169276
 C       -14.0934749279        4.1123724431        0.9971482292
 C       -12.8347594699        3.3629683302        0.9367417808
 O       -11.8111309577        4.0156113347        1.1597107376
 C       -12.8212908007        1.8133982846        0.5057972185
 C       -11.5677474967        1.1514754835        0.6777922140
 C       -11.3493539857        0.7006211454        2.0989483425
 O       -12.1093016922        1.1648935842        2.9827466730
 C       -10.3493184412       -0.5142286232        2.3369957443
 C        -9.1060994359       -0.3121453626        1.2447041441
 O        -8.7313961180        0.8636712724        1.0652795330
 C        -8.5674834294       -1.4103888067        0.3707496021
 C        -9.5847619602       -0.4376825426        3.7825343953
 C       -11.1173470747       -1.8140527738        2.2433454456
 C       -14.7516598595        4.2080354181       -0.4580847488
 C       -13.4659839515        5.4896668054        1.3062588370
 C       -12.2372413829        4.5378231758        7.8831596109
 C       -14.0886505440        6.0381468758        7.0171008827
 C        -8.5331295714        8.0824822339        2.1758411577
 C       -10.5945236591        7.0056154856        1.1920790384
 C        -5.5872760086        1.9315710532       -2.5286301754
 C        -4.1682009349        4.0857850804       -2.2220529962
 C        -5.9295537320        3.5737003486       -9.4816689225
 C        -7.6686879566        2.9810911332       -7.8889975333
 H        -5.3094517534       -0.3212567188       -9.6897242456
 H        -4.0685918346        0.1883992337       -8.5362889087
 H        -4.5798318896        1.1153597285       -9.9979938410
 H        -4.3885508220        2.6801162380       -5.1072564252
 H        -5.9196879857        1.8800854611       -5.5047587327
 H        -7.0117827288        4.1523854595       -5.5715084370
 H        -5.5688199678        5.0284458947       -5.1073302537
 H        -4.8869687071        5.0244221111       -0.0710670610
 H        -5.8619685429        3.9617550292        0.8934930410
 H        -6.4486468827        6.7871261339       -0.2572807678
 H        -6.3552240372        6.4987915850        1.2974901409
 H        -9.9959830225        7.2005732801        4.7412197958
 H        -8.7378247293        6.1741646484        4.8938047300
 H       -10.3131486003        4.6732405686        5.9538423605
 H       -11.1539785829        4.5292213336        4.3527139040
 H       -13.8659122773        5.2280781477        3.9895705803
 H       -15.3334672086        4.9535272595        4.7443785655
 H       -15.4517150943        2.5763050269        3.8447360917
 H       -13.8534709216        2.5333153301        3.3199267626
 H       -13.1843729134        1.9042236206       -0.5970506534
 H       -13.5866030505        1.2883674800        0.9722379145
 H       -10.7165947872        1.6982808909        0.4593797013
 H       -11.4766637425        0.1935771271        0.1091548468
 H        -9.0930000033       -2.2418705470        0.0456031284
 H        -7.7946140981       -1.9137599587        1.1332582927
 H        -7.7717121738       -1.0975134555       -0.3217152766
 H        -9.8216613116        0.4542090071        4.4191376023
 H        -8.5172297665       -0.5466177744        3.6464580296
 H        -9.9416819499       -1.2989992812        4.3243977234
 H       -10.7451607622       -2.4368472513        3.0943698041
 H       -11.0110518596       -2.4297303601        1.4042882011
 H       -12.1373371315       -1.6013416828        2.4004234133
 H       -15.6083372120        3.4831794036       -0.5741490447
 H       -14.1030726635        4.1292999972       -1.2828197984
 H       -15.2861967370        5.1860827787       -0.3919784524
 H       -12.9961629932        5.6961417526        0.3674111526
 H       -12.6656918907        5.4199691148        2.0985303174
 H       -14.3289009716        6.1626913913        1.5106197435
 H       -11.7452370415        5.4636688837        8.2394883911
 H       -11.4379422459        3.7580057956        7.6567630904
 H       -13.0036435293        4.2622030013        8.6736858646
 H       -13.9608357766        6.9625368108        6.5556067582
 H       -13.9686698401        6.1085609652        8.0372500720
 H       -15.0722322771        5.7535028536        6.6771895794
 H        -7.3939864338        8.1135144397        2.0736866901
 H        -8.6866633711        8.2859649137        3.2013505991
 H        -9.0821731314        8.7990811739        1.5267085853
 H       -11.1439722000        7.1013700481        2.1176487371
 H       -11.0165065127        6.1543665042        0.5507016339
 H       -10.7354238347        7.7712271107        0.4493233058
 H        -6.2454153222        1.3684670676       -1.7336047110
 H        -4.6068591197        1.5420034618       -2.5829364346
 H        -6.0327456746        1.5499552085       -3.4657636165
 H        -3.4304160634        3.4037074148       -2.6939902893
 H        -3.7529838349        4.1162469042       -1.1682700047
 H        -3.9728795890        5.1229112964       -2.4322224673
 H        -6.3171207517        4.5734207375       -9.1572347085
 H        -6.3698610693        3.3188557650      -10.4050847296
 H        -4.8282172398        3.6939217683       -9.6454222173
 H        -7.9359357154        3.8648871330       -7.4235766655
 H        -7.9574992800        2.2938846443       -6.9880995998
 H        -8.2625910015        2.8166679387       -8.8092366446
 Na       -9.2824414424        3.3251229182        0.7420608358
