117

 C        -5.0344504058        0.2554297102       -9.0528180447
 C        -6.0055057365        0.9900442160       -8.1798198230
 O        -6.3527598256        0.3961521150       -7.1755353706
 C        -6.2198993604        2.4355907761       -8.2241556258
 C        -5.1975770304        3.0013092451       -7.0653095276
 O        -4.1090379214        3.5606964139       -7.3975687031
 C        -5.6488566454        2.8434921387       -5.5577714476
 C        -6.1432868532        4.0813714432       -4.9042236928
 C        -6.4870488606        4.1601009468       -3.4786510951
 O        -7.5329589079        4.7279904227       -3.2574616274
 C        -5.7470739897        3.3704366655       -2.2558338387
 C        -6.5085758556        3.8274626350       -0.9492324766
 O        -7.4382547790        3.0328392789       -0.7225629678
 C        -6.0404521846        4.8801080834        0.0883064006
 C        -6.8436449560        6.0505683633        0.2954551282
 C        -8.3238342739        5.7917290038        0.6123433141
 O        -8.9172836608        5.0514734848       -0.0485803624
 C        -9.1296052615        6.6825451120        1.7493467498
 C        -9.4421016862        5.5760992008        2.9670689895
 O        -9.4549519636        4.3867380491        2.6567485036
 C        -9.8273885292        6.2579013147        4.2652175621
 C       -10.5718995728        5.2381549982        5.1654981089
 C       -11.7900048507        6.0311945325        5.8203796730
 O       -11.8742972809        7.1982107402        5.6579257099
 C       -12.8837875292        5.2073431316        6.6034562457
 C       -13.3202926722        4.1026621604        5.6227020901
 O       -13.1464017046        2.9870955779        5.9952558484
 C       -14.1409144417        4.4742617761        4.3734786690
 C       -14.4352175827        3.3244954793        3.4138627180
 C       -14.9760840881        3.9529390518        2.0590460805
 O       -16.1810293084        3.9649136100        1.8589232005
 C       -13.9402862654        4.4217042072        0.8651999375
 C       -12.6064105723        3.3265767475        0.7694677549
 O       -11.4574015635        3.6607540199        0.7844391372
 C       -13.0124048165        1.9270529126        0.4013186645
 C       -11.8177014512        0.9299887524        0.5859100660
 C       -11.3471097673        0.6540822297        2.1682569032
 O       -12.1193767596        0.9804359979        3.0223763323
 C       -10.2188821854       -0.2717541256        2.4158344623
 C        -9.0012300224       -0.0380683927        1.4121252520
 O        -8.5352605390        1.0463542301        1.2400355785
 C        -8.3851023312       -1.3594444988        0.7541251925
 C        -9.8419691197       -0.1137831930        3.8285123084
 C       -10.8243513444       -1.6672573407        2.1231072351
 C       -14.5827219479        4.5179030657       -0.4856729247
 C       -13.7297031292        6.0667594482        1.4085416805
 C       -12.2339004576        4.7383292572        7.9021211104
 C       -14.1235454996        6.2752836221        6.9131273923
 C        -8.4864181504        7.9691457819        2.2003384308
 C       -10.4860501253        6.9389347898        1.1146782421
 C        -5.8554325222        1.9224594618       -2.5479499168
 C        -4.1930260251        3.8098363529       -2.2912205884
 C        -5.8971581832        3.1217920119       -9.5963419187
 C        -7.7536453121        2.7412134545       -7.7551631017
 H        -5.2737218321       -0.7845778858       -9.3674889069
 H        -4.1071316962        0.3497786965       -8.5468882830
 H        -5.0076270535        0.8354239116      -10.0457406179
 H        -4.6959548418        2.4384749980       -5.0286062904
 H        -6.2702953416        2.0281514366       -5.5425615787
 H        -6.9739110477        4.5074305845       -5.5529030073
 H        -5.3465494326        4.9231045924       -4.9017282077
 H        -5.0935296257        5.1283647999       -0.1559410635
 H        -5.9705448622        4.2645333970        1.0111386146
 H        -6.7674667324        6.8146411759       -0.4748285948
 H        -6.3413962754        6.7561970060        1.0680896124
 H       -10.3128667973        7.1712223417        4.1886995485
 H        -8.9107520789        6.5511619787        4.8564902837
 H        -9.8729456383        4.8108740122        5.8200061851
 H       -10.7972920945        4.3837386500        4.5430226324
 H       -13.5888709467        5.2345984757        3.7623063270
 H       -14.9001776535        5.0433121201        4.8543741335
 H       -15.1829502912        2.5824187333        3.7835397062
 H       -13.4948844819        2.7441745074        3.2775851223
 H       -13.3292701366        2.0295298758       -0.6289034894
 H       -14.0198283942        1.6575547861        0.8238355137
 H       -10.9083842927        1.3058824039        0.0339936699
 H       -12.0079462688       -0.0483367211        0.1353732894
 H        -9.2291329479       -1.8860962819        0.1598171293
 H        -7.8724345838       -2.1156837563        1.2533052263
 H        -7.6419791573       -0.9796332853        0.0408300873
 H        -9.4700079535        0.8690416420        3.9237820973
 H        -9.0937509215       -0.8699756919        4.1361168134
 H       -10.7327420165       -0.1409163508        4.4735368898
 H       -10.2650398265       -2.4571679889        1.5739857011
 H       -11.6505894822       -1.4418853949        1.4240499639
 H       -11.3370757076       -2.1464154069        2.9918280933
 H       -15.6363771130        4.2462588656       -0.4777430919
 H       -14.0891343371        3.6836722221       -1.1234263001
 H       -14.5067060799        5.4798296450       -0.9331350582
 H       -13.2921993156        6.7041120969        0.6082370819
 H       -13.1809866722        6.0183831643        2.3382726490
 H       -14.7528317634        6.3072261370        1.5807170530
 H       -11.5490590852        5.4950144632        8.2803842094
 H       -11.5509697156        3.9215134787        7.5504513166
 H       -12.9684397007        4.5135983283        8.6335493021
 H       -14.5324622311        6.6821047795        5.9334806406
 H       -13.6002801009        7.1623984941        7.3948762774
 H       -14.9566731627        5.8161561829        7.3862918107
 H        -7.5177762705        7.7536542135        2.5276185698
 H        -9.1063314164        8.3503488959        3.0599088360
 H        -8.6747319741        8.7248770799        1.4912213139
 H       -11.1000899401        7.5269903607        1.8060776418
 H       -10.9239156731        6.1161399391        0.6373759467
 H       -10.3295625635        7.5781738407        0.1804915428
 H        -5.8476811297        1.3960676011       -1.6995239054
 H        -5.1333952653        1.5004390955       -3.2702480299
 H        -6.8070362828        1.6909926405       -2.9552026474
 H        -3.7990735115        3.8006663885       -3.3278660060
 H        -3.5206842365        3.1884237799       -1.7128532282
 H        -3.9337308763        4.7150714335       -1.6916103574
 H        -6.4995052081        3.8799008554       -9.9447968723
 H        -5.8920180381        2.3369727504      -10.3541936571
 H        -4.8642006923        3.3821208085       -9.5732840905
 H        -7.9854892728        3.8360763184       -7.9573691188
 H        -8.0620003782        2.5695502327       -6.7600342502
 H        -8.5198160517        2.2282427340       -8.3093776853
 Na       -9.3242931986        2.8883383950        0.6156608886
