117

 C        -5.0623355404        0.1467272732       -9.0518068687
 C        -5.8971211348        0.8548436672       -7.8993137009
 O        -6.3061671236        0.2549766285       -6.9663545168
 C        -6.2016423666        2.4446848686       -8.1537676071
 C        -5.3099932596        3.0492449439       -7.0453103153
 O        -4.2555525630        3.4873329226       -7.2738745152
 C        -5.6738812376        2.7884195842       -5.5758570958
 C        -5.9272592993        4.2231372177       -5.0608163984
 C        -6.6167094863        4.2144200006       -3.5106988529
 O        -7.5806069037        4.7935383821       -3.1527735523
 C        -5.8367356218        3.3959032052       -2.4052073777
 C        -6.4979101224        3.6765393479       -0.9659446944
 O        -7.4490747241        3.0247453246       -0.6848044696
 C        -6.0050603854        4.7652212939        0.0270403580
 C        -6.8353035864        6.0875547208        0.1385845677
 C        -8.2903568478        5.8734876306        0.5432799355
 O        -8.9672542458        5.0415559665       -0.1172318044
 C        -9.0663771580        6.6421887336        1.7050641816
 C        -9.4695508288        5.6047196376        2.9146622067
 O        -9.5178870446        4.3682639802        2.8264483891
 C        -9.8252758692        6.2508065308        4.1873133450
 C       -10.6011509284        5.3011899639        5.2102883060
 C       -11.7934531403        6.1213113582        5.7500954274
 O       -12.0052919113        7.3118522048        5.3506771357
 C       -12.7870889990        5.2677787344        6.6227703724
 C       -13.3788916712        4.0974264028        5.8215624243
 O       -13.0666831090        2.9238929932        5.9321535350
 C       -14.0865138476        4.5236865360        4.4003804077
 C       -14.1500280618        3.4266205162        3.2997536865
 C       -14.8174887970        3.8716914923        2.0066603999
 O       -15.9778270266        4.1346308534        1.8545438871
 C       -13.8819353841        4.4209501715        0.9268583735
 C       -12.7091221947        3.5451507158        0.7343689704
 O       -11.5825172170        3.9222137157        0.7359937828
 C       -13.1819408131        2.0286638072        0.4442459887
 C       -12.1359320905        0.8389629995        0.5652988548
 C       -11.6595462647        0.6793870167        1.9677024185
 O       -12.1885178316        1.1463971819        2.9325961805
 C       -10.2490315634       -0.2887751485        2.3173267210
 C        -8.9402643587       -0.0911048347        1.4636038050
 O        -8.3349833481        0.9880529179        1.4181028974
 C        -8.1389479144       -1.2169798315        0.8137451712
 C        -9.7975325886       -0.0551784123        3.8139032744
 C       -10.7629008211       -1.8739898444        2.3359388845
 C       -14.5958073011        4.5291124134       -0.4582716974
 C       -13.6798949166        5.9674048937        1.2792146712
 C       -12.3540505944        4.7227002543        7.9848404937
 C       -13.9500838836        6.3460553049        6.8990062159
 C        -8.3974991271        7.8454246945        2.2280974435
 C       -10.4842666545        7.0379756010        1.1228908376
 C        -5.9119534010        1.8398706203       -2.4778164096
 C        -4.2410163814        3.7110336715       -2.4294555021
 C        -5.9814349318        2.8715332709       -9.5826432604
 C        -7.6979198421        2.7225676236       -7.8672503077
 H        -5.2971270358       -0.9705579102       -9.0446883260
 H        -3.9353593430        0.3132018350       -8.8965737757
 H        -5.3800377669        0.4248319198       -9.9946060401
 H        -4.8062263851        2.3266787868       -5.1208552979
 H        -6.4653659165        2.1136254865       -5.3828350813
 H        -6.7768762651        4.5862036098       -5.8283143085
 H        -5.1297154941        4.9342192587       -5.1252990296
 H        -4.9541220131        5.0063966485       -0.3035167763
 H        -5.9629459062        4.2502067793        1.0221010720
 H        -6.8748677888        6.7344859768       -0.7647849627
 H        -6.3197432065        6.8631389272        0.7351596019
 H       -10.3839679950        7.1741944740        3.8766592259
 H        -9.0116708924        6.6433088598        4.7847230510
 H        -9.8611547009        4.9949614689        5.9051998166
 H       -10.7782641738        4.3365347583        4.7372429916
 H       -13.4400657977        5.3641072539        4.0858981198
 H       -15.0204508945        5.0109804023        4.6217098630
 H       -14.9341830004        2.8042284321        3.7095322066
 H       -13.2407459124        2.7969226373        3.2412412361
 H       -13.7613264350        1.9148692202       -0.6328270709
 H       -14.0900424136        1.8782721749        1.0445051334
 H       -11.3332429314        0.7629412734       -0.1013385810
 H       -12.6536991660       -0.1131881304        0.4368001035
 H        -8.5596848001       -1.5951225726       -0.0263859421
 H        -8.0644846099       -2.1559953163        1.4495473901
 H        -7.1381006893       -0.9087828989        0.6824269777
 H        -8.9786950614        0.6593797971        3.8054053373
 H        -9.4759763970       -1.0025448356        4.2223216654
 H       -10.5690044420        0.4192965053        4.4312850706
 H       -10.0988135329       -2.7813938306        2.0207504336
 H       -11.6267234037       -1.9941350098        1.7321559131
 H       -11.1664628166       -2.0568305990        3.3491923555
 H       -15.6634984741        4.6694613677       -0.3789127337
 H       -14.4479051006        3.5734986902       -0.9337972070
 H       -14.2047876529        5.2885064145       -1.0755689895
 H       -13.6277211265        6.5007851734        0.3416839505
 H       -12.7829484429        6.0572106924        1.9557524095
 H       -14.5760766194        6.2279649064        1.7884861147
 H       -11.8767657346        5.3626726326        8.6025364899
 H       -11.5845847003        3.9868411746        7.6562025797
 H       -13.2187892283        4.3938921695        8.4372792602
 H       -14.7510760096        6.3865156434        6.0852950659
 H       -13.4960855905        7.3687915799        6.9729007497
 H       -14.5087098950        5.9712532462        7.8009370069
 H        -7.6744209888        7.5430633408        3.0083716810
 H        -9.1746097542        8.5025310748        2.5519892651
 H        -8.0490031514        8.4597347770        1.3995473390
 H       -10.8875994323        7.7928122730        1.7082175465
 H       -11.1364291758        6.2809327737        0.7370310781
 H       -10.2447487985        7.5646780884        0.1558108421
 H        -5.3598278806        1.4507663077       -1.5834491546
 H        -5.5758103919        1.3186844897       -3.3320140058
 H        -6.9262018663        1.4831792854       -2.3095337908
 H        -3.9930221656        3.8786587644       -3.4845062627
 H        -3.6472551305        2.9398411508       -1.9991218550
 H        -3.8334793809        4.4940289688       -1.7586381612
 H        -6.5259094053        3.7536507858       -9.8894402504
 H        -6.3994137899        2.0746768826      -10.1569217919
 H        -4.9033089951        2.9021108791       -9.9126427221
 H        -7.9683177523        3.7804882443       -8.0036593779
 H        -8.1592291509        2.3631884287       -6.8361594469
 H        -8.4533705484        2.1822648505       -8.4947844757
 Na       -9.3297809467        2.8574055865        0.6935412872
