117

 C        -5.2834532417       -0.7321577713       -8.2349621843
 C        -5.8863678792        0.3101235937       -7.3712641178
 O        -6.0141367248        0.1786030116       -6.1770307539
 C        -6.2859958402        1.6694837284       -7.9891815913
 C        -5.7186271775        2.8426248446       -7.1195842600
 O        -5.0788524858        3.7074510660       -7.6402737373
 C        -6.0987024597        2.7325766765       -5.5961495520
 C        -5.9597116240        4.0203343147       -4.8045105010
 C        -6.5020603156        4.0217922109       -3.4363086474
 O        -7.4300420465        4.7341651717       -3.1736045106
 C        -6.0751828341        2.9106189513       -2.2886356690
 C        -6.6571561496        3.4980623764       -0.9475161342
 O        -7.5841418679        2.8937521700       -0.4330137030
 C        -6.1654827564        4.7707874550       -0.2741366090
 C        -7.1146962332        5.9878818491       -0.4006246998
 C        -8.4335837064        5.9807713318        0.4606439805
 O        -9.3514431697        5.3822432549        0.0903156276
 C        -8.5500727880        6.8783471577        1.6901562637
 C        -9.1330796775        6.0030869408        2.7818711019
 O        -9.2151109666        4.7826158332        2.7545615764
 C        -9.6822497576        6.7795498496        4.0783574250
 C       -10.2966403758        5.9043231308        5.1412763685
 C       -11.9124659033        6.3657672658        5.2892304646
 O       -12.4198662648        7.1533040179        4.5980473150
 C       -12.6235017912        5.6925143658        6.4739714842
 C       -13.3468392860        4.3766234624        5.7783158017
 O       -12.9789453377        3.2740464602        6.1733752328
 C       -14.3635775201        4.5032765473        4.6574029642
 C       -13.6311256354        4.4401625504        3.3718952176
 C       -14.6458943473        4.1412124732        2.0867126281
 O       -15.7781783372        3.9873830390        2.1129924696
 C       -13.9819669426        4.2214804427        0.5507613971
 C       -12.7123249416        3.2655463991        0.4726324497
 O       -11.6015204885        3.7230076855        0.3955589591
 C       -13.0249546684        1.8454191720        0.0300083865
 C       -12.0482195416        0.8558758687        0.5274293796
 C       -11.5052168897        0.8901210661        2.0183351850
 O       -11.6932818291        1.8655774975        2.6503195509
 C       -10.5253386260       -0.1202900272        2.4807433506
 C        -9.2182740623       -0.0324628089        1.7071392850
 O        -8.8660831618        0.9381651724        1.1372118744
 C        -8.2260730676       -1.2721402552        1.9617518302
 C       -10.1138917727        0.0626199475        4.0261687551
 C       -11.2494722110       -1.5637840528        2.3020995004
 C       -14.9822979480        3.7460989427       -0.4561352631
 C       -13.4966620522        5.7130230308        0.2993800976
 C       -11.6495133606        5.1181944897        7.5515869103
 C       -13.7243195513        6.8343461038        7.0159693784
 C        -7.1229467080        7.4270591380        2.3170527469
 C        -9.5039465754        8.0036089398        1.2153592370
 C        -6.5861710330        1.5498730816       -2.5322081517
 C        -4.4737456941        2.9742065863       -2.3633215662
 C        -5.6879198856        1.8798518169       -9.4012856969
 C        -7.8290573394        1.9159769250       -8.0547740582
 H        -4.8513578477       -1.5630607640       -7.6926734033
 H        -4.5981665329       -0.1181728329       -8.7422895872
 H        -5.9503654501       -1.1344162998       -9.0114323595
 H        -5.2654327647        1.9821345254       -5.2496435318
 H        -7.0379095378        2.1978483830       -5.4492501103
 H        -6.4090914830        4.9062867106       -5.3231639790
 H        -4.9649452233        4.3014376849       -4.7533475596
 H        -5.1884498958        5.1101313699       -0.5370436032
 H        -6.1893911842        4.4532188006        0.8710747745
 H        -7.4096082094        6.1116273794       -1.3962221553
 H        -6.4952087018        6.8634422538       -0.1428520771
 H       -10.5804084712        7.4251766949        3.9599232033
 H        -8.7052421511        7.3305926939        4.4099881351
 H        -9.7352246506        6.0347530242        6.1160216021
 H       -10.3404918841        4.7699063812        4.9469003262
 H       -15.1139075142        5.3241412286        4.7629873363
 H       -14.9350891893        3.5786658131        4.6859955906
 H       -12.8263699115        3.7162301737        3.1959851140
 H       -13.2200474696        5.4070604788        3.1280264923
 H       -13.0685106773        1.8348477722       -1.0021316478
 H       -14.0347859180        1.5192230750        0.2893331351
 H       -11.0835784466        1.1142737247        0.0398611224
 H       -12.3218027624       -0.0700412481        0.1098133698
 H        -7.1638354514       -0.9930921143        1.9291722821
 H        -8.3137558261       -2.0733303271        1.2422059414
 H        -8.2945482488       -1.5198803899        3.0358824608
 H       -10.9821287007        0.5975212119        4.3270876207
 H        -9.2151061610        0.6443945312        4.3020940133
 H       -10.0877071256       -0.9256306913        4.5257642810
 H       -10.5475278196       -2.4252877792        2.4165782402
 H       -11.8232751964       -1.5879492661        1.4230179697
 H       -11.9478169416       -1.7738836915        3.0872085642
 H       -15.2191632056        2.7617054735       -0.6479339524
 H       -14.5996123362        4.1670062658       -1.4371863489
 H       -15.8655019179        4.2623718999       -0.2467086198
 H       -13.5201474586        5.9699036326       -0.7971275154
 H       -12.5487996372        5.8665632821        0.8148230705
 H       -14.2388740085        6.2748894384        0.8464960476
 H       -10.8039711789        5.7650757588        7.7007081909
 H       -11.2823201157        4.0131401423        7.3230854794
 H       -12.2128452284        5.0295390624        8.4581816146
 H       -13.6145968235        7.6314065408        6.2068301806
 H       -13.4398185866        7.3250579763        7.9952684869
 H       -14.7179962271        6.4478786049        7.0907658266
 H        -6.5879227560        6.6487123698        2.8436834730
 H        -7.3386521196        8.3158420307        3.0164655554
 H        -6.5156260616        7.6443664831        1.4379113971
 H        -9.4468769188        8.9293951822        1.7467266941
 H       -10.4838440254        7.7450332084        1.3823463559
 H        -9.2966550537        8.3200156827        0.1695943799
 H        -6.3209900625        0.9179964607       -1.6635334934
 H        -5.9954613048        0.9948148502       -3.2610136956
 H        -7.7168960968        1.4132625620       -2.7751293971
 H        -4.1233159324        3.1672851183       -3.3862462644
 H        -4.1695248140        1.9807614354       -2.0478686363
 H        -4.0068287586        3.7986207694       -1.7594171856
 H        -4.6707121448        1.5081492433       -9.3590308052
 H        -5.6659287919        2.9560718002       -9.7584698073
 H        -6.1714604230        1.2143850074      -10.1541594403
 H        -8.2747722209        2.6201046469       -8.8213883215
 H        -8.3657628707        2.1179984767       -7.1034840157
 H        -8.3074377570        0.9788453460       -8.2840728042
 Na       -9.4743146949        3.1835548638        0.9045747969
