117

 C        -5.2649557349       -1.0947654470       -8.1239807220
 C        -5.8590720050        0.1486989072       -7.2816760288
 O        -6.0793743843       -0.0984268324       -6.0680054187
 C        -6.2077053907        1.5219270075       -7.9195047115
 C        -5.9749577120        2.7838548931       -7.0511377513
 O        -5.5194673914        3.8589199530       -7.5321772508
 C        -6.0836940968        2.6898806383       -5.5145854605
 C        -5.8044122448        4.0086731378       -4.7705907585
 C        -6.4438506413        3.9765680005       -3.3587170953
 O        -7.5307141619        4.5922798503       -3.2728024939
 C        -6.0689351462        3.0245992849       -2.3057944699
 C        -6.7940072324        3.5827209920       -1.0709788254
 O        -7.6419601882        3.0198998193       -0.4377993105
 C        -6.1823708345        4.7933814752       -0.4553138654
 C        -7.0525139097        6.0656334125       -0.6134439492
 C        -8.2429861191        6.1434642772        0.3304625157
 O        -9.3572102010        5.6989998378       -0.0379486863
 C        -8.2217824197        7.0949408529        1.7023915326
 C        -9.1142438953        6.2342014873        2.8391214935
 O        -9.1849480978        5.0399536725        2.7197681849
 C        -9.6287820853        6.9927299363        4.0440933868
 C       -10.1845906530        6.0085386237        5.0080353960
 C       -11.6949210825        6.3364902777        5.2165869430
 O       -12.3653009142        7.0652346848        4.3940291186
 C       -12.5420536930        5.7279858372        6.3673294167
 C       -13.2078775499        4.3778527671        5.7155880061
 O       -13.1140683085        3.3866272903        6.3385495522
 C       -14.1479326467        4.5453795217        4.4792802580
 C       -13.4313580454        4.7383010029        3.1751661920
 C       -14.5101984334        4.1432194006        2.0305392004
 O       -15.6480961919        3.7455181342        2.2983051714
 C       -14.0597260313        4.2697243052        0.3559255893
 C       -12.7353373238        3.3861754715        0.3003663812
 O       -11.6359059631        3.8855511150        0.4955005809
 C       -13.0636304809        1.9132262790        0.2683518637
 C       -11.9947328183        0.7146368334        0.4838453663
 C       -11.4138797866        0.8437767817        1.8545011223
 O       -11.4424146969        1.9794245182        2.3883543848
 C       -10.6553225766       -0.2634208600        2.6724151262
 C        -9.2139993481       -0.3424536203        1.9335647853
 O        -9.0279398370        0.5917876567        1.1156034258
 C        -8.1722982840       -1.3561357276        2.2281754425
 C       -10.5485431821        0.1361731701        4.1434335505
 C       -11.1984396423       -1.6545711856        2.5860205454
 C       -15.3060794967        3.7193285906       -0.4787798393
 C       -13.9932916366        5.8475200614        0.0168521416
 C       -11.7624259040        5.3724423629        7.7187434704
 C       -13.7147693993        6.6653845948        6.8783187186
 C        -6.9135369316        7.4132309681        2.3806730452
 C        -8.9980810472        8.3943862188        1.3409678087
 C        -6.7472060640        1.5754180893       -2.6518130042
 C        -4.6456319110        2.6603049158       -2.0787768914
 C        -5.5899342727        1.6445989374       -9.4264009634
 C        -7.8072164485        1.4745720514       -8.2050270642
 H        -5.9425726184       -1.8465109403       -7.8259178690
 H        -4.2285255821       -1.3024284057       -7.8838790023
 H        -5.3840959112       -1.0061030930       -9.2766258175
 H        -5.3994062587        1.9577920501       -5.2828653351
 H        -7.1154341034        2.3126387552       -5.2544436385
 H        -6.1863647860        4.8639629281       -5.2547168591
 H        -4.6138410159        4.2144748380       -4.7424554305
 H        -5.3072387322        5.0863096572       -1.0604905245
 H        -5.8347704711        4.7352393534        0.4929425008
 H        -7.4808175845        6.0833490354       -1.6821737608
 H        -6.3386020130        6.8781902859       -0.4003325039
 H       -10.5023752075        7.5775883270        3.6443161437
 H        -8.8896533419        7.5744430833        4.4064137306
 H        -9.7348121593        6.2642569780        5.9569648932
 H        -9.9819737541        4.9999109394        4.7387915577
 H       -14.7400286371        5.3885804667        4.7361279613
 H       -14.8428130968        3.6725776849        4.4130215312
 H       -12.5479923411        4.2037345925        2.8581170966
 H       -13.2634139295        5.7986162575        2.9248664839
 H       -13.3973888601        1.8066959772       -0.8454081544
 H       -13.9927416554        1.7566407939        0.9092157633
 H       -11.2479512983        0.9030747442       -0.2972108296
 H       -12.4637766937       -0.3259323710        0.3014512107
 H        -7.1450925309       -0.9673396063        2.5620299449
 H        -8.0800045198       -1.9305398874        1.2681919046
 H        -8.3739800633       -1.9025946181        3.1381466222
 H       -11.4137680963       -0.2487551304        4.7374864319
 H       -10.7761231462        1.2198422367        4.1805429026
 H        -9.5928086661       -0.0678739564        4.5901708447
 H       -10.6642684271       -2.2959978606        3.1874834775
 H       -11.4525091697       -2.0690159317        1.5717494328
 H       -12.2086774877       -1.6344298458        3.0463034821
 H       -16.1656876041        3.9911443282        0.2191006374
 H       -15.4800835370        2.6970297424       -0.7060819589
 H       -15.5768234737        4.3299039799       -1.4069153443
 H       -13.7172293340        5.8728648698       -1.0147164464
 H       -13.2683313862        6.3551782504        0.6973489248
 H       -15.0270128639        6.2660650606        0.1783405322
 H       -11.3189611995        6.3480946213        8.1418745182
 H       -10.9653661200        4.7765393112        7.3654124553
 H       -12.2283850710        4.6665126994        8.4829589263
 H       -14.0723970584        7.2857733989        6.1431899822
 H       -13.3098243620        7.2175723584        7.6625927570
 H       -14.5171237632        6.0994195894        7.3476756006
 H        -6.4798361381        6.5898301324        2.9771564409
 H        -7.1626601001        8.1401533024        3.0783103567
 H        -6.1906460781        7.6618987412        1.6093119003
 H        -8.4771154800        9.3853848671        1.4830349941
 H        -9.9152951664        8.7501696658        1.9257440554
 H        -9.1841328580        8.3895680968        0.2919030116
 H        -7.2610764697        1.1693277661       -1.8040041816
 H        -6.1177529746        0.7196306726       -2.9852830877
 H        -7.4892261755        1.7614639491       -3.3233664777
 H        -4.0706972850        2.5557926432       -3.0323875792
 H        -4.5951087630        1.6261697490       -1.5711030236
 H        -4.2789379297        3.5266268860       -1.6232613886
 H        -4.5961758291        1.1396972041       -9.5274766593
 H        -5.5561078365        2.6405870873       -9.8220557729
 H        -6.2212712276        1.0386096321      -10.0408606017
 H        -8.2106591777        2.1586451328       -8.9612617532
 H        -8.3754644884        1.7523115348       -7.3802848779
 H        -8.1782370453        0.5046393049       -8.5557176701
 Na       -9.4071844433        3.1936177419        1.0670987967
