117

 C        -5.3790009789       -1.2529385696       -7.9989935406
 C        -5.7505781542       -0.0705636085       -7.1058818517
 O        -6.1965779647       -0.2385869355       -6.0319702250
 C        -6.1835152458        1.3204965647       -7.9826457406
 C        -6.0254027243        2.6368244158       -7.1381799917
 O        -6.0088448138        3.6164643273       -7.7622242994
 C        -6.1056611802        2.4765998724       -5.5235653012
 C        -5.6714991986        3.7319113261       -4.7221175708
 C        -6.5117770920        3.8737820402       -3.4255933114
 O        -7.4273196564        4.6540372330       -3.4318162561
 C        -6.3262366472        2.9651212416       -2.2671593629
 C        -6.8697389595        3.6932180345       -1.0006683821
 O        -7.7965118272        3.0957891182       -0.4191745282
 C        -6.2187277119        4.9906193185       -0.5685859448
 C        -6.9163473882        6.3562811483       -0.6949993537
 C        -8.1685260208        6.4463381107        0.2690740583
 O        -9.0971845651        5.7280217856        0.0275016468
 C        -8.0785972035        7.1914201310        1.6195864621
 C        -8.9626571716        6.4091590142        2.6696634491
 O        -9.2313290253        5.1603720708        2.6327046143
 C        -9.4457112544        7.2132177703        3.9342258931
 C       -10.1210476808        6.2907461758        5.1473273257
 C       -11.7359875240        6.5024096550        5.1633182044
 O       -12.2565027718        7.1401493937        4.3182130051
 C       -12.5370601900        5.7995481208        6.2517846653
 C       -13.1548417478        4.4244561838        5.5916802640
 O       -13.1838911001        3.4268887629        6.2421236444
 C       -14.0278891788        4.5587745351        4.3142085480
 C       -13.3659436052        4.6889679179        2.9904306266
 C       -14.4904540991        4.1615584760        2.0523735403
 O       -15.3786761206        3.4449618202        2.4598755200
 C       -14.2569340628        4.2884427372        0.3949187157
 C       -13.0821103705        3.3668463475        0.3176923701
 O       -11.9548588425        3.8711701100        0.2628880731
 C       -13.2062787262        1.7320713620        0.3370635667
 C       -11.9278753495        0.9640538472        0.6438824568
 C       -11.3024902726        1.1504823062        1.9974311381
 O       -11.0227288105        2.2120422132        2.4319834377
 C       -10.7719724907       -0.1738955000        2.7228594652
 C        -9.2893557121       -0.3448236400        2.1273609134
 O        -8.8842281606        0.4192975251        1.3043112786
 C        -8.3236577583       -1.4351270638        2.5970092597
 C       -10.6740137112        0.0781142837        4.1643433924
 C       -11.5469726654       -1.5446690873        2.5333700779
 C       -15.6107807526        3.7380289338       -0.2882083612
 C       -13.7633336132        5.6895911723       -0.1483910804
 C       -11.7287185791        5.4204643240        7.5729971961
 C       -13.7752587416        6.6191169280        6.6265130723
 C        -6.5988212998        7.0799327287        2.0755956443
 C        -8.4590789614        8.6883203316        1.3629478287
 C        -7.1357483036        1.6081420835       -2.5254436611
 C        -4.7784570079        2.5299354243       -1.9072700218
 C        -5.3286912340        1.5742843160       -9.2858539970
 C        -7.6751790285        1.0961283753       -8.1314450380
 H        -6.3159379744       -1.5523675781       -8.5671373325
 H        -5.0222654902       -2.0647036027       -7.2807619968
 H        -4.6758411326       -0.9794664914       -8.6700319218
 H        -5.5564151365        1.4972403703       -5.1909193928
 H        -7.1439563754        2.3603503795       -5.3794610474
 H        -5.9581037098        4.6770133712       -5.3123939124
 H        -4.7003680499        3.7099844826       -4.5667061085
 H        -5.1741313793        5.1168821018       -0.8847069735
 H        -6.0489056784        4.8984807384        0.6041086041
 H        -7.3137488921        6.3275729206       -1.6873543868
 H        -6.1396770070        7.1203867806       -0.5010049471
 H       -10.0163362737        7.9696120886        3.3848324948
 H        -8.4183376768        7.5893112503        4.4359834813
 H        -9.6072206677        6.5765285458        6.0353161063
 H        -9.8143641059        5.2497028775        4.8158960268
 H       -14.6752562417        5.4203037089        4.6253811793
 H       -14.6696714041        3.6857146130        4.2776989454
 H       -12.4842644172        4.0327802951        2.8682845909
 H       -13.0907422444        5.6964122276        2.6810787379
 H       -13.4771095376        1.3623142600       -0.6450751174
 H       -13.8946387059        1.3208825361        1.0482540543
 H       -11.1991997958        1.2178058479       -0.1348307999
 H       -12.2115548115       -0.0250222885        0.5527471093
 H        -7.5539697823       -0.8811969569        2.9185129822
 H        -8.0429462825       -2.0053917616        1.7274972035
 H        -8.4541231312       -2.0499063082        3.4931887391
 H       -10.7020298285       -0.8073614038        4.7422270658
 H       -11.4395092418        0.6858944046        4.6102500631
 H        -9.6357168336        0.4263130549        4.2883352173
 H       -11.3031916974       -2.2583642404        3.4319446291
 H       -11.0727012223       -2.0444713365        1.7145354280
 H       -12.6122702723       -1.6339699049        2.2198512170
 H       -16.2623593150        4.3181999321       -0.9226463910
 H       -16.2534604207        3.4185956095        0.5872263218
 H       -15.4612602206        2.8295472247       -0.7894693900
 H       -13.1549699088        5.5664085157       -1.0768886365
 H       -13.0615718574        6.0746664031        0.6586482548
 H       -14.6247069563        6.3473222972       -0.1747352250
 H       -11.9968188555        6.1709996639        8.2389107605
 H       -10.6865853593        5.1291548288        7.5643817777
 H       -12.1475892176        4.5394566649        7.9090017975
 H       -14.5339542173        6.4953134279        5.8050876581
 H       -13.5874261438        7.7055200331        6.8428588591
 H       -14.2217546157        6.2324734473        7.5605754674
 H        -6.2627825503        6.1255519880        1.7330619384
 H        -6.3850608838        6.9976590640        3.1730413065
 H        -5.9983751190        7.7922416527        1.5341820587
 H        -7.6424131918        9.1946422614        0.9224808300
 H        -8.4790402708        9.3621893894        2.1622114829
 H        -9.3655855109        8.9389458690        0.7570269416
 H        -7.0849917508        0.7573370247       -1.7698608321
 H        -6.6972868601        1.2419347963       -3.4043638587
 H        -8.2364395359        1.7921991612       -2.7044048082
 H        -4.5388112543        1.6142932760       -2.3967570124
 H        -4.6469625653        2.2568223779       -0.9384490274
 H        -4.2393308179        3.4191111810       -2.3538752006
 H        -4.4293611084        1.9565103710       -8.9481592554
 H        -5.8137071862        2.3670542073       -9.8184654333
 H        -5.1496543532        0.7152390354       -9.9559479417
 H        -8.2731567145        1.9982869788       -8.0951407650
 H        -8.1665260345        0.6246113532       -7.1704625509
 H        -7.9835705007        0.6815359127       -9.1097280719
 Na       -9.5846787743        3.3810514809        1.2459549312
