117

 C        -5.2316553002       -1.4213421547       -7.9074162041
 C        -5.8833845020       -0.2865998665       -7.1799815989
 O        -5.9892966789       -0.4065378552       -5.9323243823
 C        -6.2916602336        1.0679353902       -8.0376669394
 C        -6.1257000477        2.3949409364       -7.0706659631
 O        -6.2202516335        3.5217356802       -7.5522596809
 C        -6.1037270804        2.2672733654       -5.4426649808
 C        -5.7139084648        3.5871167529       -4.7597625218
 C        -6.6036235774        3.8634606047       -3.5736171904
 O        -7.2280392026        4.9173217811       -3.5946046245
 C        -6.5880855711        2.8171720545       -2.0987850737
 C        -6.9728266649        3.7317786280       -0.9792311627
 O        -7.9100723151        3.4292679439       -0.3074189396
 C        -6.0975360322        4.9546054051       -0.6562189197
 C        -7.0232254312        6.2957057471       -0.7773095025
 C        -8.1318952637        6.2595666921        0.2794859149
 O        -9.1843805478        5.7668343179       -0.0255740367
 C        -7.8653618211        7.0766636227        1.7329664981
 C        -8.8700854581        6.5197758245        2.7642281304
 O        -9.2095999399        5.4259355552        2.6692911882
 C        -9.3605338824        7.4921624215        3.9000981869
 C       -10.0718633278        6.6295391302        5.0195102388
 C       -11.5994561493        6.6852469151        5.0888865723
 O       -12.1417134905        7.3615609930        4.1996995044
 C       -12.4715233410        5.9291839307        6.1497900958
 C       -13.1683837821        4.4869651569        5.6109579054
 O       -12.8116024617        3.4324627844        6.0771460186
 C       -14.2426587714        4.5985929011        4.4585633394
 C       -13.5586395586        4.5321539987        3.0392595191
 C       -14.4801070039        3.9270816113        1.9249442317
 O       -15.3839014983        3.2459494402        2.2930048700
 C       -14.1897294675        4.1059154980        0.4143118171
 C       -12.9685311534        3.1216090307        0.1916302099
 O       -11.8912279000        3.5925505057       -0.0443318686
 C       -13.2181965494        1.6707153488        0.5192911779
 C       -11.8217317195        0.9605746009        0.6921215128
 C       -11.2907226529        1.1646565184        2.0949830248
 O       -11.0007175870        2.2640704548        2.6258465289
 C       -10.7896917547       -0.0618301989        2.7674250336
 C        -9.3054601430       -0.2403686335        2.3001163149
 O        -8.6803161324        0.4719528303        1.5249113340
 C        -8.6124708455       -1.5251464576        2.8761665969
 C       -10.7284219894        0.1471130491        4.3735623957
 C       -11.7576738080       -1.1674789102        2.2959586859
 C       -15.4314531703        3.7252934200       -0.3156652476
 C       -13.9335117069        5.6803732815       -0.0405175265
 C       -11.6107623506        5.4879548511        7.3006478880
 C       -13.5528748158        6.9286760255        6.5433728687
 C        -6.3978972386        6.8804843158        2.2507164920
 C        -8.0926200944        8.5608106635        1.4111174186
 C        -7.4472088182        1.5847428612       -2.2013042922
 C        -5.0441563653        2.5766956156       -1.9943634619
 C        -5.2919224085        1.1859406500       -9.1357912511
 C        -7.7802773399        0.9156569295       -8.5389122141
 H        -5.4100561164       -1.3254494623       -8.9535401581
 H        -5.7884230258       -2.2471219314       -7.6305327492
 H        -4.1181100440       -1.5577370635       -7.6757853798
 H        -5.6926013051        1.4316817803       -5.0234182374
 H        -7.2175032559        2.2631234123       -5.1945794885
 H        -5.9672347985        4.3736784165       -5.4544609120
 H        -4.5571211879        3.6324130714       -4.4125579663
 H        -5.2527539763        5.0391000192       -1.3167368413
 H        -5.6686899742        4.8510654232        0.2753753396
 H        -7.4195910484        6.1389459607       -1.7998085023
 H        -6.5069910373        7.1822360739       -0.5193941124
 H       -10.1765076853        8.0585465030        3.4163329573
 H        -8.5992388837        8.0657281023        4.2243720970
 H        -9.6155203348        6.8932929240        6.0397448538
 H       -10.0041541325        5.5712802003        4.7948080115
 H       -14.8195391593        5.4476082558        4.6972221228
 H       -14.8852373142        3.7089594909        4.6676289041
 H       -12.6052240556        4.0105845934        3.1715526640
 H       -13.3537796203        5.5807876059        2.7939916634
 H       -13.7234795005        1.2827260627       -0.3473583967
 H       -13.8101789954        1.6326572288        1.5108623358
 H       -11.1705134694        1.5560958676        0.0695772491
 H       -11.8673396679       -0.1007659029        0.3103110190
 H        -7.8961519335       -1.4749973389        3.8221604613
 H        -8.2490016984       -2.1451427413        2.0266701330
 H        -9.4637415729       -2.1393750682        3.2754502760
 H        -9.8084444863       -0.3216978421        4.7823702854
 H       -11.5560871750       -0.4055298546        4.8271712180
 H       -10.5908936320        1.1617965662        4.6646952359
 H       -11.5855146515       -2.0077570192        2.8716107472
 H       -11.6731892371       -1.4828745398        1.2478424783
 H       -12.7708808805       -0.8719594387        2.3791155296
 H       -15.3063466505        3.4395088459       -1.3194574680
 H       -16.1698591316        4.5015778626       -0.3346721174
 H       -15.9126104671        2.8609276050        0.1914662316
 H       -13.9051004325        5.7930437143       -1.1349645358
 H       -12.9714594123        5.9322125138        0.3285315394
 H       -14.7224068754        6.3033877155        0.4846072265
 H       -11.2775937606        6.3279756795        7.9564907735
 H       -10.8764356796        4.7066208334        6.9732474928
 H       -12.2340385114        4.7736438590        7.9519810134
 H       -14.0915666265        7.2945869773        5.6723666897
 H       -13.1001775296        7.7737394279        7.0674043569
 H       -14.2848780500        6.4956544608        7.2023049659
 H        -6.1630947001        5.8747856913        2.6731259395
 H        -6.3211705869        7.5710590890        3.1278684478
 H        -5.6217584750        7.2828198267        1.5238213079
 H        -8.0326377061        8.9735364905        0.3721729189
 H        -7.3796278311        9.2886120370        1.8224726002
 H        -9.0029166508        8.8476938255        1.8716834385
 H        -7.2437507181        0.9264911824       -1.3948044287
 H        -7.2553779794        0.9682700707       -3.1687475421
 H        -8.5131266444        1.7816946112       -2.0354701482
 H        -4.9924233008        1.6430153897       -2.5534084585
 H        -4.8228471776        2.1357134028       -0.9711399840
 H        -4.4855778329        3.3375868135       -2.3874810446
 H        -4.2572394262        1.4203222541       -8.7038996776
 H        -5.6312114110        2.1096703972       -9.6974371523
 H        -5.3106279411        0.3676164067       -9.8536040303
 H        -8.0712984260        1.9129041782       -8.9523654107
 H        -8.5159947081        0.7579518127       -7.8830514687
 H        -7.7929727492        0.3157832820       -9.4060282230
 Na       -9.8042215028        3.7714227465        0.9754238322
