117

 C        -5.2206083750       -1.5848709630       -7.8937092174
 C        -5.8863313405       -0.3874177474       -7.1894277657
 O        -6.0200058101       -0.4361937704       -6.0034261030
 C        -6.2547784083        0.9648183637       -7.9753858292
 C        -6.3369533160        2.2107831946       -6.9835930162
 O        -6.2342229507        3.2631220544       -7.4629206802
 C        -6.2031490770        2.0669973457       -5.4678836803
 C        -5.8984920745        3.4434203843       -4.7902478806
 C        -6.5982997189        3.8582543348       -3.5123117462
 O        -7.2263983083        4.8988646404       -3.4259281704
 C        -6.5674504738        2.9383705932       -2.2806134493
 C        -6.9724490106        3.8238472223       -0.9552162130
 O        -7.9366580822        3.4972357576       -0.2566203824
 C        -6.1443972564        5.0352391446       -0.6855309763
 C        -7.0249982604        6.3838742329       -0.7454633526
 C        -8.0441017829        6.3693222755        0.3700646052
 O        -9.1780504280        6.0384184828        0.1159711293
 C        -7.8488214855        7.0542169350        1.7467942442
 C        -8.8459762604        6.5319368247        2.7663159083
 O        -9.3064305592        5.3728142971        2.8079744835
 C        -9.3244778443        7.5063667485        3.8189287120
 C        -9.9754549214        6.6434326124        5.0975631626
 C       -11.6475834257        6.7443267515        4.9510151886
 O       -12.2525868257        7.3735665855        4.1214548895
 C       -12.3290700905        6.0025528093        6.1046956679
 C       -13.0060180902        4.6868500782        5.4411688764
 O       -12.6384982339        3.6288590029        5.8823250979
 C       -14.2195916836        4.6488458806        4.4515844357
 C       -13.6689567631        4.5916010067        3.0989971874
 C       -14.6711467043        3.8917538049        2.1584977780
 O       -15.5083941901        3.0786165756        2.2464363736
 C       -14.2347696121        4.0816770123        0.3863198734
 C       -12.9194147817        3.2625663400        0.1996415671
 O       -11.9030929021        3.6965622755       -0.3046238695
 C       -13.0838405127        1.7575646696        0.5078681192
 C       -11.6250969269        1.0694353383        0.6424986585
 C       -11.1245871197        1.2725350035        2.0460887337
 O       -11.1552973971        2.4566554335        2.4374739937
 C       -10.8282977804       -0.0685037655        2.8922426347
 C        -9.3132199694       -0.3843732552        2.3646284515
 O        -8.6894798721        0.4063803808        1.7703294596
 C        -8.6204021969       -1.6986518943        2.8418937784
 C       -10.9778322115        0.1847492957        4.4016009930
 C       -11.6661535045       -1.3333389493        2.5975119988
 C       -15.4187378176        3.5871588227       -0.4460597258
 C       -13.8332458709        5.6259564346        0.1509263321
 C       -11.4105835491        5.5659190211        7.2714804998
 C       -13.4817817476        7.0069642344        6.5034703105
 C        -6.3879132760        6.6389483275        2.2710007101
 C        -8.0179935608        8.5174897171        1.2953706788
 C        -7.5443779788        1.7245110617       -2.3282864660
 C        -5.0643303632        2.4070801189       -2.0528753533
 C        -5.2442790996        1.2124268715       -9.1248896738
 C        -7.6481105830        0.8251201118       -8.5876861318
 H        -5.0529209674       -1.4436340534       -9.0113195166
 H        -5.8080453509       -2.5463623301       -7.7960476041
 H        -4.3110261420       -1.6184998886       -7.4217877768
 H        -5.3168184480        1.4486720684       -5.2413388248
 H        -7.0115077957        1.5905329451       -4.9378591195
 H        -6.0250293601        4.2817025773       -5.5090782825
 H        -4.9464205958        3.3382442447       -4.5187129813
 H        -5.3651231515        5.0861306893       -1.3442947846
 H        -5.6396108000        5.0065356950        0.3395422942
 H        -7.5001981618        6.3538261669       -1.7316578901
 H        -6.4207137511        7.2562733370       -0.3894319923
 H       -10.1723855341        8.0236621510        3.4639308429
 H        -8.4206869967        8.1128729652        3.9485597863
 H        -9.6375351027        7.0688672051        6.0433071243
 H        -9.8435410571        5.6136143517        5.0576322402
 H       -14.9034645875        5.4783178938        4.6186655915
 H       -14.7249145426        3.7702106938        4.8746310437
 H       -12.7953306776        3.9140835279        3.0606216349
 H       -13.3839791270        5.6009256390        2.8471526163
 H       -13.6271079196        1.2424626667       -0.3568066524
 H       -13.5175262600        1.6000594922        1.5825546979
 H       -10.9493158605        1.4707811151       -0.1761912573
 H       -11.8477133761        0.0351130192        0.4879748100
 H        -8.2246830761       -1.3911447885        3.7980840834
 H        -7.8364612080       -1.9334365741        2.0931937804
 H        -9.1885186668       -2.6910631579        3.0741120163
 H        -9.9954799046        0.1332229846        4.8383842470
 H       -11.5337450118       -0.6782474887        4.7918726827
 H       -11.3247526335        1.1818025461        4.7468575563
 H       -11.5094745384       -2.1541426814        3.3900705541
 H       -11.5682243214       -1.7317555865        1.6367910754
 H       -12.6804743423       -1.0036016563        2.6290796757
 H       -15.0896929546        2.8804269497       -1.1699973015
 H       -15.9531392484        4.3686147676       -1.0945484915
 H       -16.1970917865        3.0401735892        0.1237940096
 H       -13.9287605090        5.9902831320       -0.9273017012
 H       -12.7784064845        5.6045057605        0.3777611126
 H       -14.3398080169        6.2872812055        0.8404473335
 H       -10.6913059822        6.3544389251        7.4843007092
 H       -10.9966571186        4.4810106603        7.0713795906
 H       -11.9117477417        5.4106403790        8.2271458434
 H       -13.8444497468        7.6068680861        5.6710973122
 H       -13.1551325876        7.6843498942        7.2650218487
 H       -14.2865330184        6.4617815780        6.8133197115
 H        -6.4843819687        5.8163434646        2.9253951416
 H        -6.1311107426        7.5075415375        2.9638200034
 H        -5.5312702662        6.5910934589        1.6103702993
 H        -7.9438913261        8.6187240232        0.2002256781
 H        -7.2962877103        9.2715873401        1.5247195119
 H        -8.9964327124        9.0110990065        1.6725552257
 H        -7.3483986118        1.4474565714       -1.3125844869
 H        -7.3629704816        0.9469721708       -2.9718413530
 H        -8.6363161988        1.8513531731       -2.2256398271
 H        -4.8526223929        1.7917992624       -2.9469832085
 H        -5.2104314453        1.5971434333       -1.3745346281
 H        -4.2840566591        3.1891183767       -1.7950187144
 H        -4.2764362080        0.7958796016       -8.9155376570
 H        -5.1441073043        2.3013412616       -9.4057360645
 H        -5.7538322345        0.7063622961       -9.9630860986
 H        -7.7309911473        1.5802472519       -9.3617078402
 H        -8.5381218326        1.0765328378       -7.9564387763
 H        -7.7808809236       -0.0759976885       -9.0934478578
 Na       -9.9447610113        3.9491068582        0.9349801972
