117

 C        -5.5768130147       -2.5784620373       -7.4001015210
 C        -5.8147370295       -1.1926492401       -6.7633575244
 O        -6.3752904603       -1.1069635140       -5.6759546498
 C        -5.9596403278        0.1312111156       -7.8308658958
 C        -6.5600083146        1.3983767595       -7.0550811311
 O        -6.6946137744        2.3607434782       -7.7915869945
 C        -6.8409274404        1.5029890964       -5.4949582430
 C        -6.9770387809        2.9700461484       -5.2134583564
 C        -7.1525017027        3.5477921508       -3.8675177776
 O        -7.3427557297        4.7197461887       -3.7574267002
 C        -7.1904463707        2.6744790285       -2.4154285397
 C        -7.5288952135        3.6659352708       -1.1991950788
 O        -8.5313195839        3.5800736026       -0.5554731469
 C        -6.4924738952        4.6159578389       -0.6390544522
 C        -6.8064571564        6.1208717651       -0.5747820512
 C        -7.8981611979        6.5710441777        0.4722243192
 O        -9.0191476015        6.6045095406        0.0260831597
 C        -7.6223003785        7.0534786277        1.9466983957
 C        -8.9910181108        7.1671967373        2.7269561621
 O        -9.9408719218        6.3954853158        2.4547193614
 C        -9.1029852774        8.2290011978        3.9864811156
 C        -9.8580743519        7.5220340580        5.1251179767
 C       -11.3202967938        7.4147050513        4.7604802782
 O       -11.8722542090        7.9501249407        3.8476339905
 C       -12.1368375927        6.3931140162        5.7550626703
 C       -12.1430551052        4.8876705701        5.2009767507
 O       -11.3193938491        4.0745041730        5.5329754437
 C       -13.2893113947        4.3643404242        4.1432002208
 C       -13.0187272170        4.4955415860        2.5991046928
 C       -14.2310585099        3.9431651585        1.8567270279
 O       -15.2706833964        3.6959977271        2.4403307783
 C       -14.1557735061        3.7178542173        0.3058607703
 C       -12.8336519679        3.2272937053        0.0177326036
 O       -11.9157418192        4.0152792758       -0.0994292310
 C       -12.6058339138        1.7889207806        0.2870187967
 C       -11.1483899962        1.3554832838        0.4998339835
 C       -10.6708291764        1.5847650269        1.9650632661
 O       -10.0102683351        2.5795237109        2.1406778687
 C       -10.9186300844        0.6258446878        3.1275701131
 C        -9.5662174351       -0.2558880711        3.3365494380
 O        -8.5854179299        0.1142878756        2.6828662184
 C        -9.6776694437       -1.6769358670        3.7435604090
 C       -11.3389296297        1.3619694516        4.4894006586
 C       -12.0943670165       -0.3277272747        2.8548359826
 C       -15.3859200067        2.9953984955       -0.1426360819
 C       -14.2881767255        5.1700522628       -0.1768660323
 C       -11.5578330895        6.4074869813        7.0907313698
 C       -13.5871682367        6.7878893033        5.7044852327
 C        -6.7655175710        6.0278314973        2.8081620264
 C        -6.9833291960        8.4642082518        1.8941680709
 C        -8.5116087947        1.8008184019       -2.7070312323
 C        -5.9612270749        1.7413531119       -2.2733250527
 C        -4.6515023496        0.4290304076       -8.4253458719
 C        -7.0185821814       -0.2483587206       -8.8607234872
 H        -6.5049928418       -3.0003334049       -7.4112232781
 H        -5.0593746378       -3.2407656693       -6.7141745252
 H        -5.1139228790       -2.6287171550       -8.4229871575
 H        -5.9073798694        0.9350986340       -5.0806331322
 H        -7.6569241101        0.9309607380       -5.2548691733
 H        -7.7349339751        3.3796615753       -5.9888316163
 H        -6.1595534023        3.5008401108       -5.5657706447
 H        -5.6854710074        4.6469368002       -1.3742333628
 H        -6.1653143955        4.1536085562        0.2409904877
 H        -7.1964413401        6.4385521225       -1.5337667909
 H        -5.9071048780        6.7204470138       -0.3945076201
 H        -9.6029078699        9.0814477042        3.7564451983
 H        -8.0385258818        8.5062120069        4.2959162362
 H        -9.6678694389        8.2185553511        5.9717656515
 H        -9.5772141406        6.5273925328        5.6131388996
 H       -14.3296049224        4.7727255444        4.3933798375
 H       -13.3082320031        3.3454286484        4.5136369782
 H       -12.1597317214        3.8970188446        2.2901518000
 H       -12.7918104904        5.5672558058        2.4463759470
 H       -13.0823799226        1.0183273589       -0.4756039600
 H       -13.2055043729        1.5744401237        1.1450235623
 H       -10.4554931516        2.0067392755       -0.1216366289
 H       -11.0537204360        0.3783540744        0.1172175018
 H       -10.0534251732       -2.2847816777        2.8435662742
 H       -10.5209200172       -1.9396782467        4.5058881335
 H        -8.6561550200       -2.0071776067        3.9836953823
 H       -10.5397771665        2.0180347915        4.7444021140
 H       -11.5186294038        0.7681564606        5.3473185412
 H       -12.3477292474        1.7543965832        4.3368189147
 H       -12.1288037611       -1.1126783940        3.6171348088
 H       -12.1275081827       -0.7692912110        1.8464382400
 H       -12.9847043704        0.2704025273        3.0689433025
 H       -16.3813043026        3.3287766609        0.1762028152
 H       -15.2330086077        2.0184437973        0.2139842285
 H       -15.4751977536        2.9134632665       -1.1727428127
 H       -14.1436441522        5.2406698400       -1.2752473585
 H       -13.6085138607        5.9514298256        0.3299079719
 H       -15.2875892005        5.4823124590        0.0818985394
 H       -11.0445984405        7.3905114138        7.2831232181
 H       -10.7193313185        5.7916098852        7.2103151627
 H       -12.3246372089        6.1705981733        7.8983713014
 H       -13.9947983130        7.3630209645        4.8531545623
 H       -13.7181112947        7.4208778488        6.6160294029
 H       -14.3453548865        5.9680659545        5.9678528650
 H        -7.5603847982        5.4902715378        3.4090397390
 H        -6.3303416356        6.6572942492        3.6360037543
 H        -6.1370583216        5.2180228937        2.4409337567
 H        -6.0224182351        8.4730158470        1.4067049683
 H        -6.7724771654        8.8580234735        2.9432297715
 H        -7.6049204629        9.1578352835        1.3055785914
 H        -8.3813379012        0.9127806458       -2.0189551518
 H        -8.7506034125        1.3736191951       -3.7072882173
 H        -9.3827186364        2.3406689183       -2.3884982807
 H        -6.1867588900        0.7379676778       -2.4898176369
 H        -5.3021764850        1.9643843224       -1.5066137470
 H        -5.3547589724        2.0354594712       -3.1535298242
 H        -3.8374310441        0.6872702549       -7.7840651258
 H        -4.8261455516        1.2039031142       -9.1174638724
 H        -4.2929831534       -0.4218330437       -9.0444950198
 H        -6.9585519581        0.4444461538       -9.6784454302
 H        -8.0340034856       -0.3075186206       -8.4953952472
 H        -6.9302156573       -1.2395837520       -9.3272665212
 Na       -9.8082590234        4.5997374393        1.1575188230
