117

 C        -5.5664604792       -2.6745823840       -7.1947772544
 C        -5.9580480834       -1.3040275643       -6.5649541645
 O        -6.2991449467       -1.1782923675       -5.4451443178
 C        -6.0344551782       -0.0892847845       -7.6036620841
 C        -6.5945892923        1.3130730506       -7.2488778991
 O        -6.8258904744        2.0828881301       -8.1065533011
 C        -6.9236497095        1.6776463918       -5.6426412397
 C        -7.1992811756        3.1871790407       -5.3624309571
 C        -7.3397236942        3.5791941203       -3.7669259752
 O        -7.3773154749        4.7816715242       -3.4795837056
 C        -7.3906205125        2.6459580382       -2.5821325941
 C        -7.5888321284        3.6222892811       -1.3404033076
 O        -8.7399326622        3.5580785770       -0.8389380283
 C        -6.4750013797        4.3716361453       -0.6926066242
 C        -6.6989246259        5.8515313546       -0.3807736600
 C        -7.8238752837        6.5422887759        0.3967334863
 O        -8.9769192037        6.6941733840       -0.0487362481
 C        -7.5656509734        6.9723688063        1.7984652008
 C        -9.0244372968        7.1766020125        2.7385792711
 O        -9.9651146767        6.4942452742        2.5310672021
 C        -9.0372303937        8.2239342161        3.8680890506
 C        -9.8434869652        7.7875444525        5.1223039711
 C       -11.3923684179        7.6072178742        4.8386042902
 O       -11.9763987954        8.2619572195        4.0159133782
 C       -12.2570755940        6.5969406290        5.6414217714
 C       -12.1233381846        4.9987493063        5.2184194515
 O       -11.0622927968        4.4223860921        5.4728519092
 C       -13.2457864540        4.4293292880        4.3811610301
 C       -13.0849715527        4.6613944743        2.8735335762
 C       -14.3245072854        4.1290672945        2.0499885379
 O       -15.3709177696        3.7798858967        2.5478837414
 C       -14.0253364615        3.8732615434        0.3570504604
 C       -12.6706299029        3.3061683182        0.0593696018
 O       -11.7816473981        4.0511939556       -0.3369624613
 C       -12.2947711706        1.7965692981        0.0210109819
 C       -10.8851192170        1.4415847733        0.5479713140
 C       -10.5714167034        1.6194851624        2.0439027566
 O        -9.8308131974        2.5330911464        2.3689870981
 C       -11.0433364729        0.5279724599        3.0701097066
 C        -9.7252727566       -0.3519568868        3.1964455097
 O        -8.6619984852        0.0611411928        2.8823288701
 C        -9.7837644586       -1.6518393329        4.1660404761
 C       -10.9472450601        1.0495094676        4.5301483223
 C       -12.3460337858       -0.2299765895        2.7079625512
 C       -15.0167878656        2.8078297269        0.0417667086
 C       -14.3762462530        5.1483792090       -0.4161749466
 C       -11.6853994406        6.4358892852        7.0771594468
 C       -13.7674443444        7.2408488446        5.7299096499
 C        -6.7148182065        5.9418000085        2.6116456236
 C        -6.6982722758        8.2858296029        1.7006633443
 C        -8.6722367082        1.7618213502       -2.6674106108
 C        -6.1340547387        1.6954776442       -2.4445938925
 C        -4.5250938725       -0.0318702203       -8.0441160775
 C        -6.9222667822       -0.5451048167       -8.8996186230
 H        -6.4929468561       -3.3893885008       -6.9903521374
 H        -4.6768079774       -3.2410733815       -6.8340985333
 H        -5.5350676284       -2.6156448804       -8.2191239430
 H        -6.1122527755        1.4138353381       -5.0734751522
 H        -7.7679609580        0.9233699433       -5.3464861743
 H        -7.9170340712        3.7159199254       -5.9516462258
 H        -6.3052423978        3.7991937589       -5.7292934681
 H        -5.5750861864        4.2586080564       -1.3123833633
 H        -6.2632591821        3.8455116899        0.3412249607
 H        -6.8168678999        6.5632111715       -1.2492863419
 H        -5.7676464901        6.2757600840        0.0187487422
 H        -9.1562829782        9.2019007337        3.2141423534
 H        -8.0264333868        8.3226103906        4.1211319546
 H        -9.4782960339        8.3222666448        5.9911972683
 H        -9.5338261998        6.8208003081        5.2851650263
 H       -14.1432848229        4.8713291367        4.6713029516
 H       -13.2964649231        3.3469402521        4.6743722133
 H       -12.2080550235        4.0493183481        2.5813819860
 H       -12.9408980358        5.7021091331        2.4986585418
 H       -12.3458766887        1.4289432391       -0.9503184220
 H       -13.0667452157        1.0774878913        0.5203433479
 H       -10.0406542029        1.7253113316       -0.0610462454
 H       -11.0341460639        0.3064589279        0.3738818337
 H        -9.5153568502       -2.5089441218        3.6332498270
 H       -10.8005730760       -1.8296713232        4.3986980793
 H        -9.0662116826       -1.4491057394        5.0189310810
 H       -10.0220993452        0.7806827246        5.0735683650
 H       -11.8001591974        0.5801563881        5.0819462280
 H       -11.2821413194        2.0916065960        4.5439477258
 H       -12.7262005603       -0.8030125929        3.5780006457
 H       -12.2110116096       -0.7023274566        1.7652976973
 H       -13.0860257987        0.5184809468        2.5333236438
 H       -15.8792922462        3.3170823609       -0.2996396545
 H       -15.2982992259        2.0229044072        0.8048146208
 H       -14.6873232502        2.2149038672       -0.8690038644
 H       -14.3065648044        4.9096019202       -1.4913623954
 H       -13.6046675079        5.8522632323       -0.2457436000
 H       -15.3003013633        5.6993606452       -0.1618034436
 H       -11.7545783423        7.3555719408        7.6438359170
 H       -10.5204031468        6.3150471857        7.1529094771
 H       -12.1264536189        5.5724872655        7.5650396337
 H       -14.4983382078        6.7942662797        5.0737199092
 H       -13.6883927572        8.2922622392        5.5134237394
 H       -14.1919320123        7.2330031383        6.6697765671
 H        -6.9185774605        4.8935168579        2.3828783820
 H        -6.7807751272        6.0382692535        3.7117325349
 H        -5.6801247466        6.0609041615        2.2054581201
 H        -5.6716498797        8.1731425450        1.2303564562
 H        -6.4269983067        8.5973293741        2.6902350887
 H        -7.2752443367        9.0787517051        1.1204545064
 H        -8.9456585443        1.2005625716       -1.8020936894
 H        -8.4957433897        0.9869865221       -3.3569764202
 H        -9.5020723176        2.3951028581       -3.1121291822
 H        -6.5032752066        0.6025269115       -2.4332444958
 H        -5.7741765485        1.9255118733       -1.3869806254
 H        -5.2249537103        1.7497122645       -3.0820414089
 H        -3.9032943051       -0.4302553947       -7.2092587583
 H        -4.1051349368        0.9806157306       -8.3738739777
 H        -4.3456611326       -0.7237037234       -8.8615648349
 H        -7.0088386185        0.3279898915       -9.4961338148
 H        -7.9914050428       -0.8707265393       -8.7019956296
 H        -6.4055195063       -1.2354916483       -9.5435857021
 Na       -9.9718897448        4.5897231509        0.7828650739
