117

 C        -5.7012987080       -2.8267656155       -6.6871555644
 C        -6.1530405835       -1.3242437839       -6.4098655619
 O        -6.3894261781       -1.0675868249       -5.1792183352
 C        -6.1927745531       -0.2761762156       -7.5146605993
 C        -6.6171048875        1.2362051279       -7.0756113900
 O        -6.8906024847        2.0387735946       -7.9850149683
 C        -6.7198745602        1.5910281303       -5.6309539229
 C        -7.2539399214        2.9652983288       -5.4078897064
 C        -7.4102818785        3.6085272110       -3.9810121486
 O        -7.2447374998        4.7933185930       -3.7521655874
 C        -7.6082167191        2.5839379388       -2.7302900603
 C        -7.8604859477        3.5343869963       -1.4287857356
 O        -8.9697935647        3.6510046783       -1.0627823299
 C        -6.5946028038        4.1447098621       -0.5829428589
 C        -6.6142136317        5.6801494231       -0.5919655046
 C        -7.8022437746        6.2793484650        0.1953001798
 O        -8.8664355310        6.4169995477       -0.3023127201
 C        -7.3713433093        6.7817686018        1.7355073914
 C        -8.7418396834        6.9254028347        2.5189934850
 O        -9.7021978290        6.1823181467        2.3620227752
 C        -9.0135726225        8.1364866537        3.6102456862
 C        -9.8194698838        7.5730616973        4.9325154286
 C       -11.4084043942        7.7431638121        4.8956097247
 O       -11.8542310665        8.4786718739        4.0303846601
 C       -12.3996901539        6.8340688949        5.7719910129
 C       -12.1506578161        5.3934375103        5.1555946111
 O       -11.0394244218        4.9766324442        5.1117554599
 C       -13.2143057548        4.6013357006        4.3168526522
 C       -13.0576119076        5.0102312321        2.7910873248
 C       -14.1579744587        4.0512951662        2.0843286591
 O       -15.2644004563        4.0030766003        2.4841964884
 C       -13.9893224881        3.7234914711        0.4276832602
 C       -12.5709861233        3.3219936695       -0.0031143445
 O       -11.8527331945        4.2489878525       -0.2722246397
 C       -12.0440484520        1.9285562038        0.0997939497
 C       -10.6628487284        1.3916745096        0.5526222974
 C       -10.5509800582        1.7902681857        2.0572899520
 O       -10.4027490866        2.9278976606        2.4526858620
 C       -10.7570196052        0.5514253276        3.2381060377
 C        -9.5897630494       -0.5921048689        3.3505884892
 O        -8.5308566882       -0.5098696343        2.7163315593
 C        -9.9786779412       -1.7534140083        4.2351754793
 C       -11.0632240348        1.4086927934        4.5208637283
 C       -12.1158798649       -0.0981380014        2.8004908076
 C       -15.0333961834        2.5649807699        0.1453050326
 C       -14.2684476369        5.0519930549       -0.2255427147
 C       -11.8345320016        6.9254554034        7.3130925982
 C       -13.8181206364        7.3871289743        5.8371291793
 C        -6.6976714047        5.7669186970        2.6299852458
 C        -6.7819229513        8.1665166031        1.6286909936
 C        -8.7501972847        1.6569784071       -2.9194595125
 C        -6.2974776895        1.8180017270       -2.3966687985
 C        -4.6683172230       -0.0044135935       -7.6683956552
 C        -6.7674221355       -0.6959193591       -8.9182018189
 H        -6.3309810365       -3.5121024622       -6.2310148723
 H        -4.7212544115       -2.9611976550       -6.2834541346
 H        -5.5771819847       -3.1861233760       -7.7839915937
 H        -5.6389723185        1.5307382676       -5.1079703355
 H        -7.2901640255        0.7833034446       -5.2880842253
 H        -8.1398718399        3.2615166557       -6.0269968998
 H        -6.5934041184        3.6277798164       -5.9594137879
 H        -5.7042333629        3.9308827691       -1.2227261010
 H        -6.3878669710        3.6998947513        0.3060860063
 H        -6.6388254548        6.1629916893       -1.5546942317
 H        -5.6826875268        6.1247102587       -0.2139590331
 H        -9.6171717441        8.7757446743        3.0678399690
 H        -8.0525114385        8.7397578754        3.7178544725
 H        -9.5517836568        8.0710584362        5.8877429727
 H        -9.5735111183        6.4305748154        5.1222008278
 H       -14.2808295992        4.9677437664        4.5156759400
 H       -13.1106903938        3.5670807276        4.5399710288
 H       -12.0334229526        4.7938717158        2.5348957094
 H       -13.4419438101        5.9294163433        2.3689991608
 H       -12.2629955441        1.5889817398       -0.9524582182
 H       -12.8440941654        1.3853315150        0.5036571354
 H        -9.8872925358        1.9059421766       -0.0390328384
 H       -10.4935136278        0.3902001594        0.3723879899
 H        -9.1260430768       -2.5142177395        4.0714105029
 H       -10.9475190005       -2.1889086326        4.0575509045
 H        -9.8275234798       -1.3506196680        5.1989258793
 H       -10.1620762012        1.3979659165        5.1602730575
 H       -11.8580426849        1.0003957146        5.1230405886
 H       -11.3335006848        2.4455711986        4.2878843925
 H       -12.3007413985       -0.7736882661        3.5821123043
 H       -12.0532415635       -0.4479744002        1.7210756478
 H       -12.9856235782        0.6407355093        2.7371074344
 H       -16.0581117519        2.9387130281        0.5104836565
 H       -14.7957329935        1.6759100773        0.7156544392
 H       -15.1047796913        2.1681200249       -0.9003754188
 H       -14.3565083149        4.9602200807       -1.2967767379
 H       -13.5955571617        5.9311836416       -0.0217142571
 H       -15.2714913010        5.3854373964        0.1362253427
 H       -11.9099929916        7.8570101789        7.7989225995
 H       -10.8833383694        6.5461434974        7.4515947235
 H       -12.3735112875        6.1667243493        7.8327082419
 H       -14.3762129412        6.4654955815        5.9316588282
 H       -14.1358267467        7.9754447329        4.9786340836
 H       -14.0535020572        8.0233358943        6.7639491324
 H        -6.8270947881        4.7269272664        2.3722967099
 H        -7.1732293342        5.6670564375        3.6008776412
 H        -5.6689492850        5.9692057199        2.7443994846
 H        -5.9604655909        8.1031827281        0.9562640553
 H        -6.2196786493        8.4312582807        2.5422160977
 H        -7.5324571976        8.8123721718        1.3513624114
 H        -9.0368783597        1.1782319281       -1.9492159452
 H        -8.4331246181        0.7041273771       -3.4966605197
 H        -9.5455265795        2.1078461006       -3.3816824781
 H        -6.2136583546        1.0898707926       -3.1778581325
 H        -6.1378579167        1.2365238402       -1.4593756993
 H        -5.4830498527        2.4994339453       -2.6085248431
 H        -4.3489212976        0.3169139069       -6.6801725084
 H        -4.4828891203        0.7801495470       -8.3189489978
 H        -4.0436972959       -0.8616308469       -7.9525948621
 H        -7.0182048000        0.0477026887       -9.7924492056
 H        -7.7065774850       -1.1782741040       -8.6735003192
 H        -6.0634430580       -1.5118852672       -9.3296633041
 Na       -9.9138004763        4.6416643708        0.9208761470
