117

 C        -6.3711164363       -4.8684860625        4.8981355823
 C        -6.4983809917       -5.1848745274        3.3773422423
 O        -5.8234611781       -6.0731592156        2.8929199799
 C        -7.3921080411       -4.1988538267        2.4373493319
 C        -8.8798063703       -4.3869119061        2.8699614504
 O        -9.2332565167       -5.2474427398        3.6173840305
 C        -9.7519533951       -3.1640318409        2.4112213300
 C       -11.3658458780       -3.2942293903        2.4444202077
 C       -11.8751116338       -1.9311202115        2.4357415318
 O       -12.4128233948       -1.4613538597        1.4034032946
 C       -11.6106853409       -1.0083658036        3.6531088161
 C       -10.3519083556       -0.0414767535        3.2662241298
 O        -9.2406221667       -0.2414546613        3.6750541148
 C       -10.7995286597        1.2082156725        2.4199576692
 C        -9.5771765086        1.9591465337        1.8906328270
 C        -9.8549013321        2.7183165164        0.5368681587
 O        -9.7497831986        3.9186820952        0.5670868232
 C       -10.3621870027        1.9280129481       -0.8237391050
 C       -11.9228979297        2.1361344682       -0.9662668824
 O       -12.6409792131        2.0286316460       -0.0297621249
 C       -12.4696162922        2.3883752181       -2.4118833245
 C       -13.2300620043        3.7316880654       -2.4717866974
 C       -12.4305760558        4.9881768392       -2.0109692967
 O       -11.4133505393        4.8459662171       -1.3704640780
 C       -12.9798720926        6.3899559964       -2.3747686095
 C       -11.8282421929        7.3926349071       -2.7177305231
 O       -10.8633453675        7.6535959399       -2.0220974038
 C       -11.8571808315        8.1267021878       -4.0660531661
 C       -10.5604607341        8.9672184527       -4.3180002150
 C       -10.6375765849       10.3277067906       -3.5303038409
 O       -11.6113930366       10.6994408806       -2.9636182451
 C        -9.3505642858       11.1788985744       -3.3646404462
 C        -8.5490219472       10.3479796982       -2.2591114550
 O        -7.7469090493        9.5173766271       -2.6541508486
 C        -8.8347820839       10.6476456196       -0.7834300482
 C        -7.7467885938       10.0901364542        0.2161108970
 C        -7.9434979425        8.6043613855        0.2228674944
 O        -9.1010148101        8.1842586329        0.0662252221
 C        -6.7107351383        7.5562415873        0.2316786757
 C        -6.6948438777        6.9195752665       -1.1718813681
 O        -7.5724411714        6.1034992580       -1.4855727989
 C        -5.4510773293        7.1222141168       -2.1654938242
 C        -5.4471084950        8.2357628413        0.6333018158
 C        -6.9385831929        6.3869096311        1.3729944639
 C        -8.6290869380       11.2741263869       -4.7269039822
 C        -9.6298080351       12.6279895186       -2.7828019577
 C       -14.1464185536        6.3054686509       -3.3824110028
 C       -13.5681781245        7.0006944855       -1.0866711029
 C        -9.6393440046        2.4838292516       -1.9941381744
 C       -10.1905707648        0.4458238071       -0.8087446394
 C       -12.9039446399       -0.2455133085        3.8756456537
 C       -11.2681501276       -1.7573848689        4.9847168377
 C        -6.8627936368       -2.7423000252        2.5291025124
 C        -7.3078310016       -4.6064803479        0.9129464395
 H        -5.4466071952       -4.4080424100        5.0321426359
 H        -6.4721179505       -5.7506927525        5.5207326138
 H        -7.0766801785       -4.1109961619        5.1261452214
 H        -9.4520130209       -2.8379310336        1.3526807557
 H        -9.6024629186       -2.5469090859        3.2086892616
 H       -11.6561651045       -3.8353612250        3.3182384515
 H       -11.7963416960       -3.7787420736        1.6214466687
 H       -11.3365284398        1.8829566719        3.0792455950
 H       -11.4519976279        0.7744671961        1.6748422325
 H        -8.7286649952        1.2775474776        1.6430967455
 H        -9.2525854739        2.6281536094        2.7062278957
 H       -13.2257258836        1.5547036563       -2.5761292559
 H       -11.7175327337        2.2015301141       -3.1755379974
 H       -14.0699453515        3.5137405804       -1.7852238687
 H       -13.6447062092        3.8012236269       -3.4669204346
 H       -12.7164290793        8.7659223096       -4.1142989535
 H       -11.9222145812        7.4356734591       -4.8872250241
 H       -10.7456922526        9.3115038431       -5.3890080950
 H        -9.7368542705        8.3453317775       -4.2377021899
 H        -9.8262268614       10.3193718565       -0.5167513513
 H        -8.8171421243       11.7075844629       -0.5417201098
 H        -7.9761406235       10.4496460620        1.1883781112
 H        -6.6833411391       10.3455195352        0.0321674636
 H        -5.3752098732        8.1607005953       -2.5308402471
 H        -5.6894139671        6.4789567946       -2.9539657074
 H        -4.4145574280        6.8379446375       -1.8177171751
 H        -5.4558377686        8.8125141518        1.5564571003
 H        -5.1524098437        8.9127253630       -0.1594511078
 H        -4.6892217272        7.4247949743        0.6111753599
 H        -6.8643461779        6.8919101008        2.3454539927
 H        -6.0132533281        5.7138873300        1.3081248874
 H        -7.7838789700        5.7386124272        1.1986923877
 H        -8.0778296329       12.1942803083       -4.9474727689
 H        -9.3762613061       11.2158967649       -5.4881146851
 H        -7.8757853694       10.5602011794       -4.8096545751
 H        -8.7690087844       13.0201286295       -2.3916103167
 H       -10.3593358473       12.3850570278       -1.9742423438
 H       -10.2048085243       13.1402645236       -3.4506021937
 H       -14.9334429138        5.6675310069       -2.9751888990
 H       -13.7747085328        5.8525581387       -4.3435375077
 H       -14.4054419715        7.3683421874       -3.6047422333
 H       -14.0243990547        6.1093658358       -0.5095049305
 H       -14.2317844569        7.9045757245       -1.2210403687
 H       -12.7048648109        7.4079178048       -0.4600201105
 H        -9.8334705779        2.0247841289       -2.9517695772
 H        -8.4666044425        2.4812127545       -1.9149589388
 H        -9.8136106970        3.5472887255       -2.1235261127
 H       -10.6632894365       -0.0859195720        0.0026616951
 H        -9.1203746654        0.2185773982       -0.7619371936
 H       -10.5926078541        0.1799601228       -1.7383629690
 H       -13.7832716647       -0.8327419296        3.6517871093
 H       -13.0164285211        0.6321509162        3.1860775751
 H       -12.9674143504        0.0779215186        4.8902447198
 H       -11.9935657767       -2.4462370547        5.3121886037
 H       -11.2846915639       -1.0757167050        5.7953372863
 H       -10.2851251421       -2.1657382642        5.0044284958
 H        -7.0202462673       -2.1559286194        3.4735683172
 H        -7.4349180156       -2.1558485138        1.8297022681
 H        -5.7804675346       -2.8242466110        2.3074534939
 H        -8.0924105472       -5.3499275788        0.5917148569
 H        -6.3629796002       -5.1942907794        0.8645732014
 H        -7.2692380323       -3.7166260356        0.2481720834
 Na       -9.7101993943        6.1006822461       -0.4469303526
