117

 C       -10.9445898705       -0.1368634533        8.8591830480
 C        -9.5608371076       -0.0369054995        9.4894807629
 O        -9.3127302853        0.6496742129       10.4485401145
 C        -8.4020857650       -0.9019034066        8.8208599739
 C        -8.4370416837       -1.0508256188        7.2681973323
 O        -9.1809664632       -1.8597853003        6.7260273144
 C        -7.3553806676       -0.3239135933        6.3945390538
 C        -7.8106155256       -0.4047673309        4.8900542024
 C        -6.6565757569       -0.2737519254        3.9302155719
 O        -5.5674710662       -0.6991370916        4.2100914906
 C        -6.9569086589        0.3356737911        2.3883596891
 C        -7.4696189650        1.8733679222        2.5185192350
 O        -8.1229050983        2.2808761255        3.4314994287
 C        -6.9571101803        2.7566125835        1.3554579768
 C        -7.3268290547        4.1893520382        1.5166091893
 C        -8.7544744807        4.6694645637        0.9631401085
 O        -8.8999279195        4.5886930292       -0.2312557272
 C        -9.8031007198        5.4940982250        1.9325071381
 C       -11.1820888155        5.4102185393        1.1914598166
 O       -11.7023037416        6.3574651675        0.6216713064
 C       -12.0000105951        4.0503448882        1.1359838679
 C       -12.7509381755        3.9078784438       -0.3205721891
 C       -12.2009199442        2.5954823716       -1.1195196012
 O       -11.7137963291        1.7227627388       -0.4425697852
 C       -12.5379591370        2.2746665821       -2.6019015094
 C       -11.4859362372        3.0104403915       -3.5535681618
 O       -10.8316154715        4.0052495340       -3.2284267902
 C       -11.2833819870        2.3814526510       -5.0056967185
 C       -10.4672950047        3.3338132958       -5.9807088866
 C       -11.5029517974        4.1464693027       -6.9095633258
 O       -12.6076069199        3.7088808571       -6.9846318568
 C       -10.9532122919        5.3564613993       -7.6208816642
 C       -10.5805795723        6.4581080066       -6.4438250567
 O        -9.5417436840        6.3456980355       -5.8457236135
 C       -11.6519437524        7.5183369919       -6.0709264365
 C       -10.9404383030        8.6485145363       -5.3073564044
 C       -10.7541786301        8.2620027877       -3.7804140602
 O       -11.2870784684        7.1795288592       -3.3774688447
 C        -9.6104569637        8.8430298065       -2.8987099288
 C        -8.4847498251        7.7659533855       -2.9361178395
 O        -8.6568556327        6.7087536501       -2.3536457960
 C        -7.2652338065        8.1084152363       -3.8109752440
 C        -9.0162747050       10.1943548905       -3.4725101436
 C       -10.0403905578        9.1005382000       -1.4316059331
 C        -9.7361911480        4.9618506894       -8.4132485678
 C       -12.1000558357        5.8936553996       -8.5793396039
 C       -12.6769540286        0.7815948649       -3.0365020712
 C       -14.0073452295        2.8945470941       -2.7226079198
 C        -9.8174702248        4.8929823934        3.3221527629
 C        -9.3602712369        6.9949578777        1.8713084589
 C        -5.7215490277        0.2259655225        1.4461424798
 C        -8.1855794788       -0.4712402510        1.7695426480
 C        -7.0423246563       -0.2121412298        9.3007029678
 C        -8.5431766540       -2.2922430237        9.5128815337
 H       -11.0002342082       -1.0587862743        8.3750955843
 H       -10.8959261656        0.6312476707        8.1208162557
 H       -11.7612390949       -0.0007961240        9.5502021571
 H        -6.4569717448       -0.9644410709        6.5187859586
 H        -7.3303428530        0.6696155449        6.7081480916
 H        -8.5970788870        0.3781226394        4.6316708570
 H        -8.4230986053       -1.3691509856        4.7710316280
 H        -7.3187713336        2.3979039659        0.3455494564
 H        -5.8130634432        2.7359172578        1.3054082126
 H        -6.7054918348        4.7797948128        0.8227663541
 H        -7.0582337152        4.5038102354        2.5503508304
 H       -12.7516810811        4.1567189356        1.8529912568
 H       -11.4209724800        3.0998521492        1.4034442466
 H       -12.7198102946        4.8135394277       -1.0231149265
 H       -13.8091282444        3.7063786635       -0.0951979760
 H       -12.2581152114        2.2091066257       -5.4078367084
 H       -10.8066971237        1.4474430281       -4.9611422634
 H        -9.8470699115        2.7184079802       -6.5959669340
 H        -9.8046584523        3.9973824000       -5.5479730759
 H       -12.4140305566        6.9541604676       -5.5162809122
 H       -12.1127517806        7.9181508132       -6.9701919552
 H       -11.4498465817        9.5461382071       -5.4275262470
 H        -9.9641728254        8.8813960878       -5.6596310621
 H        -6.8598636182        9.0173502857       -3.4671572261
 H        -7.7024810501        8.3104381871       -4.7944785646
 H        -6.5156291864        7.3790239490       -3.8298536727
 H        -9.7631186310       11.0202370190       -3.1586361077
 H        -8.9331677872       10.3174049402       -4.4895747761
 H        -8.0542018185       10.5370102131       -3.0879250560
 H        -9.0410212542        9.4399722700       -0.9872193953
 H       -10.3901915458        8.2050182751       -0.8130106120
 H       -10.8397159646        9.7990533517       -1.4387058443
 H        -9.7212998989        3.8101595178       -8.4069604635
 H        -8.7793642173        5.2535361675       -8.0113455647
 H        -9.6933836848        5.4126468237       -9.3863677236
 H       -12.4428906498        5.2167561417       -9.4283700699
 H       -11.7828757003        6.8789628231       -8.9425258051
 H       -13.0601234273        6.0095128929       -8.0294006546
 H       -13.4324510027        0.3111066264       -2.4577714349
 H       -11.7155831201        0.2957459406       -2.9638938610
 H       -13.0821089856        0.7220355480       -4.0225039148
 H       -13.9819677570        3.9309918991       -3.0487531768
 H       -14.6101304341        2.8933469800       -1.7617565425
 H       -14.5878184338        2.2773844784       -3.5393109096
 H       -10.8237057220        4.6101656676        3.7161556603
 H        -9.5919679266        5.6074323493        4.0237579942
 H        -9.1264296470        4.0173720693        3.5891606327
 H        -8.8833085930        7.2794135516        0.9439391474
 H        -8.5938438350        7.1924533244        2.5859350822
 H       -10.1751664000        7.7085825175        2.0239033725
 H        -5.1425067297       -0.6548372745        1.6901134109
 H        -5.0697538062        1.1173569759        1.5326288858
 H        -6.0074161663        0.0417543025        0.3795934873
 H        -8.9595380030       -0.5101262011        2.5914174947
 H        -7.7754112877       -1.4219137016        1.3911983674
 H        -8.6582109935        0.1365886949        0.9356006720
 H        -7.1185923223        0.8017733602        8.8994079680
 H        -6.2675388524       -0.8777114552        8.8855641611
 H        -6.9350815898       -0.2581478186       10.3403207551
 H        -9.3279447759       -2.8025542843        8.8980783116
 H        -8.8025940955       -2.2172369668       10.5888879056
 H        -7.5897018306       -2.8289706642        9.6164295286
 Na      -10.6463233722        5.7920788701       -1.5959892601
