117

 C        -6.1262702924       10.9376296303       -3.2145747476
 C        -6.7185330685       10.0757205506       -2.0892562555
 O        -7.9220427003       10.1819151433       -1.7979386449
 C        -5.8768261451        8.8930163002       -1.4167558193
 C        -6.9386034895        8.0998176050       -0.5396889117
 O        -7.3911507130        7.0247833434       -0.9395995027
 C        -7.3496731299        8.6135312436        0.8072468505
 C        -8.8049978920        8.2105857677        1.0908749502
 C        -8.9860722884        8.3166067092        2.5976727597
 O        -8.0298570859        8.2962764264        3.3185694669
 C       -10.4423762800        8.1233009333        3.1659764186
 C       -10.8535979432        6.5986677605        3.1253200130
 O       -11.0675608791        6.0209943370        2.0818031592
 C       -10.8607915726        5.9270339132        4.4578451558
 C       -11.3599045889        4.4883750937        4.3364811369
 C       -12.8306302386        4.2101944661        3.7787224800
 O       -13.6052460133        5.1092109011        3.4481987940
 C       -13.3161637698        2.6740241350        3.5840637751
 C       -12.8039013681        2.2997478704        2.1874403227
 O       -11.9404353304        1.4564300168        2.0231905613
 C       -13.5063452583        2.9008796807        0.9871130079
 C       -12.5798778418        3.9300276607        0.1961759979
 C       -12.2093541212        3.5274395778       -1.2358242699
 O       -12.4617528235        2.4275870060       -1.7606243407
 C       -11.3339258848        4.4789018588       -2.0657525810
 C        -9.9133342514        3.8575848022       -1.8052753938
 O        -9.7663621993        2.8975751821       -1.0648999161
 C        -8.6442821904        4.6386101195       -2.2382924531
 C        -7.4173181038        3.8702603367       -1.7343562987
 C        -7.3826840945        2.5282564990       -2.4823387704
 O        -7.5636449186        2.4969632201       -3.6412883608
 C        -6.9748270484        1.1578184917       -1.7109708355
 C        -8.2951439054        0.3436841308       -1.6941010123
 O        -9.0101311016        0.2973692024       -0.6819385435
 C        -8.8100225804       -0.1701655909       -3.0172396044
 C       -10.2104815774       -0.6991119233       -2.8539986753
 C       -10.3532438660       -2.2187025204       -2.4944485673
 O        -9.4139767757       -2.9333949227       -2.6304931643
 C       -11.7448810966       -2.6961197310       -1.8931816382
 C       -11.6310508374       -2.2091189880       -0.3861481621
 O       -11.7792120976       -1.0206017602       -0.1261874781
 C       -11.1620241049       -3.1569155163        0.7680604276
 C       -12.9141481098       -2.0606914212       -2.6527946186
 C       -11.8461122905       -4.2190412506       -2.0092593711
 C        -5.8618985815        0.3623053476       -2.4147085866
 C        -6.4548005729        1.4608325108       -0.3509973010
 C       -11.8883302840        4.2423503198       -3.5487828581
 C       -11.4708529315        5.9497647189       -1.6670722154
 C       -12.6211605999        1.7143032558        4.6198234080
 C       -14.8106921291        2.5273204781        3.7078818510
 C       -10.6646220570        8.8471615461        4.5026849529
 C       -11.5483050161        8.7335785613        2.2591397645
 C        -5.2297849285        7.9577310284       -2.4560974612
 C        -4.7179912495        9.4291388390       -0.5222843793
 H        -5.3427063510       10.4811602085       -3.7465099899
 H        -5.7853584767       11.8839691948       -2.7827194262
 H        -6.9091159517       11.3336112614       -3.8986035351
 H        -7.1580032790        9.6944925922        0.9004497955
 H        -6.6329920805        8.1948576541        1.5417092208
 H        -8.9835948878        7.1552110269        0.8764744332
 H        -9.4276918102        8.8528179973        0.4134442103
 H       -11.1722657492        6.5455063286        5.2262691739
 H        -9.7871701049        5.7683921736        4.7004742721
 H       -11.3941416977        4.1172482340        5.3893683051
 H       -10.6331158002        3.8744661725        3.8973132635
 H       -14.3792959644        3.4750010772        1.3584890119
 H       -13.7496240740        2.1504330996        0.2818634934
 H       -11.6079144749        4.1242357429        0.6479519036
 H       -13.1151594915        4.8941990872        0.1306655682
 H        -8.6601895606        5.6181785475       -1.8437151059
 H        -8.6519337748        4.7004272358       -3.3639604646
 H        -7.4912338099        3.6387831514       -0.6589998260
 H        -6.5018182851        4.4183482312       -1.8103925583
 H        -8.2046302706       -0.9958402696       -3.3950927313
 H        -8.6917861878        0.7000087980       -3.7126109920
 H       -10.7884968894       -0.5270684671       -3.7883166932
 H       -10.8072918267       -0.0224962365       -2.2130230473
 H       -10.2475486440       -3.6390408521        0.4246991567
 H       -11.8636732984       -4.0022775592        0.9444762290
 H       -11.0509012439       -2.6301434788        1.7508214364
 H       -12.6951174370       -2.1769752993       -3.7173905203
 H       -13.1777250113       -1.1011790977       -2.3515904097
 H       -13.8173356507       -2.6497502468       -2.5084448132
 H       -12.6873751876       -4.7239881625       -1.5981847439
 H       -10.9657036022       -4.7076997884       -1.6379310243
 H       -11.6390163868       -4.4370423268       -3.0560298608
 H        -5.9441111495       -0.6967873645       -2.0906255902
 H        -4.9232403283        0.7539369301       -2.1084816872
 H        -5.9625001352        0.3609606372       -3.5258301314
 H        -7.1655705379        2.0341353087        0.2388868135
 H        -5.4534451147        1.9058715429       -0.3621267631
 H        -6.3427424449        0.6049103349        0.3242549514
 H       -11.1606260817        4.5207177003       -4.2799420855
 H       -12.8082085153        4.7827990373       -3.7171349693
 H       -12.0823702528        3.1725289866       -3.6627148759
 H       -11.0631309203        6.0608178557       -0.6368471884
 H       -12.5096897208        6.1199903421       -1.7642566886
 H       -10.9457663005        6.5807148233       -2.3695501363
 H       -13.1441491340        0.8094854981        4.6937679271
 H       -12.6232103449        2.1856294593        5.5684458872
 H       -11.5966430950        1.4583194125        4.3546843326
 H       -15.2089891408        1.6381479958        3.2490959413
 H       -15.3894735846        3.3572755652        3.3530799726
 H       -15.0228075763        2.3355111011        4.8010671088
 H       -10.4612287243        9.9505203624        4.3302350930
 H        -9.9283603386        8.5759692453        5.3362322558
 H       -11.6341750078        8.7216273396        4.8836470873
 H       -12.4333677853        8.7706505849        2.9167527355
 H       -11.6666785747        8.2237441586        1.3057919770
 H       -11.3508698918        9.7754895411        2.0071075959
 H        -4.3760148260        7.4356627047       -2.0223200895
 H        -4.8816933811        8.5278647287       -3.3193402177
 H        -5.8895466139        7.1461338354       -2.8057665195
 H        -4.0788513245        8.6110618898       -0.0838343966
 H        -5.0486217825       10.0211188332        0.3364699291
 H        -4.0556954874       10.1140297720       -1.0508080121
 Na      -11.1503741655        1.1609953100       -0.0397630627
