117

 C        -6.0154030531       10.9966697921       -3.0451474756
 C        -6.7230977754       10.0627993103       -2.1265468871
 O        -7.8697965856       10.2126090366       -1.7960341761
 C        -5.8745847132        8.8732107114       -1.5012277832
 C        -6.8841509610        8.0289826705       -0.6329427681
 O        -7.2212058797        6.9294500870       -1.0514899028
 C        -7.3889122920        8.5646956253        0.7156382620
 C        -8.8356795949        8.1453403874        1.1011867456
 C        -9.0750582219        8.2546012431        2.6073510211
 O        -8.1731809402        8.3766195107        3.4427942685
 C       -10.5926082512        8.2702797899        3.1382556275
 C       -10.7830930503        6.6557331827        3.2021835178
 O       -10.9205223622        6.1054840739        2.1416886010
 C       -10.7721649621        5.9032014469        4.5340882787
 C       -11.3820728559        4.4569299284        4.4215971110
 C       -12.8033483514        4.2976982248        3.8728960029
 O       -13.5601501745        5.1680091659        3.5510631062
 C       -13.3215024040        2.7520784345        3.7006535087
 C       -12.8915177923        2.3339082360        2.2079560314
 O       -11.9638800899        1.5232370123        2.1009142705
 C       -13.6569517452        2.9926785657        1.0230912303
 C       -12.7764815355        3.9580849494        0.2056871325
 C       -12.2778081993        3.4215263431       -1.1523998856
 O       -12.7019206658        2.3554936886       -1.6287060764
 C       -11.3132680745        4.3355464745       -2.0422746778
 C        -9.8559012087        3.8341448650       -1.7915095402
 O        -9.6988502539        2.7776762295       -1.1443544606
 C        -8.6231319413        4.5819958493       -2.2005631535
 C        -7.3537752805        3.8053126969       -1.8401893800
 C        -7.1950878162        2.4667303146       -2.5556025490
 O        -7.5115208076        2.4201077264       -3.7508053880
 C        -6.9139290544        1.1239569718       -1.6843080025
 C        -8.3412930050        0.3414241009       -1.7458897986
 O        -8.9718386073        0.2750178227       -0.7222437584
 C        -8.8055484242       -0.2071991035       -3.0861947245
 C       -10.1991569486       -0.7459967812       -2.9687265007
 C       -10.2762312806       -2.1613692219       -2.5550801162
 O        -9.3618151167       -2.9690782454       -2.6489543377
 C       -11.5829745078       -2.6295063999       -1.8825474135
 C       -11.6250325143       -2.1662958282       -0.4428570487
 O       -11.9838022292       -1.0174235016       -0.1518841964
 C       -11.3692872021       -3.1544529329        0.6567373940
 C       -12.7890885760       -1.9047184535       -2.6439409460
 C       -11.7887970467       -4.1552041629       -1.8895555009
 C        -5.7596014306        0.3366280817       -2.3837233835
 C        -6.5585409493        1.3947847735       -0.1507654151
 C       -11.8036351726        4.2381961073       -3.5015818323
 C       -11.4113647572        5.8879304976       -1.7399125426
 C       -12.5912252560        1.8458717667        4.7180769667
 C       -14.8382135160        2.5173224515        3.8110394221
 C       -10.7268157761        8.9762971386        4.4548633821
 C       -11.5711814726        8.8577053107        2.0228101705
 C        -5.2393217583        7.9596289056       -2.5240590541
 C        -4.6959632475        9.4690019873       -0.6761529013
 H        -5.3713862451       10.4910689197       -3.7917902228
 H        -5.4026500861       11.7015392456       -2.4651854872
 H        -6.6818687580       11.6444856818       -3.4841580667
 H        -7.2278418289        9.6178700652        0.7057013024
 H        -6.7289280349        8.2082152991        1.5013601699
 H        -9.0516026703        7.1206464597        0.7746713479
 H        -9.5249681658        8.8213384042        0.6083181109
 H       -11.4315964445        6.5988563454        5.0633475711
 H        -9.8839311385        5.9290727684        5.1444952285
 H       -11.3243946545        3.9685465963        5.3898919082
 H       -10.7710844358        3.8118493574        3.8153245730
 H       -14.4010384019        3.6467418416        1.5095944386
 H       -14.0699282066        2.3460620076        0.2979314733
 H       -11.9063660002        4.3929252404        0.6672433523
 H       -13.4691399662        4.7448068530       -0.0663678810
 H        -8.5772089516        5.5961623701       -1.7992166342
 H        -8.7321434759        4.6250785484       -3.3082502991
 H        -7.2224029867        3.6130021742       -0.8042226265
 H        -6.4852200849        4.4415459842       -2.0948868860
 H        -8.1661626468       -1.1046481689       -3.1812497851
 H        -8.5746395366        0.4568404075       -3.9647039465
 H       -10.7353827727       -0.5836978890       -3.9702147281
 H       -10.8410676239       -0.1486314314       -2.3719319161
 H       -10.3993224659       -3.6787257599        0.4559310800
 H       -12.1329294863       -4.0029987329        0.6779131084
 H       -11.3977027122       -2.6869063364        1.6669503732
 H       -12.7230735802       -2.2416279223       -3.6995285506
 H       -12.7088373072       -0.7795473435       -2.4902560218
 H       -13.7655045504       -2.1295453103       -2.3508617979
 H       -12.6720073405       -4.4033913476       -1.3852274080
 H       -10.9747234141       -4.7387105218       -1.4269504495
 H       -11.7426804976       -4.5634118330       -2.8889481765
 H        -5.8866168939       -0.7228442092       -2.1740426747
 H        -4.7829480128        0.7055959147       -1.9909179217
 H        -5.7429260754        0.4752139141       -3.4190090897
 H        -7.4622873783        1.5737078061        0.4629494278
 H        -5.7601911721        2.1359284114        0.0632185093
 H        -6.1840245050        0.5079948008        0.3393018422
 H       -11.1495173626        4.9385376774       -4.0579557702
 H       -12.8419886764        4.5141983120       -3.5598489343
 H       -11.7152617069        3.2018452705       -3.9750207746
 H       -11.1233170164        6.0024433475       -0.7440775146
 H       -12.4847416683        6.2011339409       -1.9945356418
 H       -10.7087541687        6.4070892762       -2.3944346431
 H       -12.9182235352        0.8177043850        4.6887407696
 H       -12.8017678588        2.2291751391        5.7078897581
 H       -11.5698894600        1.7735812312        4.5719293825
 H       -15.1106726512        1.5736649192        3.3354985672
 H       -15.4048085337        3.2991431730        3.2908884015
 H       -15.1985814983        2.3606047231        4.8001312116
 H       -10.3232230320        9.9996587894        4.4359023457
 H       -10.2620959700        8.5114157412        5.2636361411
 H       -11.8050819426        9.0540429260        4.6865769177
 H       -12.5676095805        9.0360975169        2.4688869386
 H       -11.5613802804        8.1166370290        1.2564121316
 H       -11.2872669571        9.8120278951        1.5534580903
 H        -4.6154678608        7.1270263108       -2.1145461296
 H        -4.5947180321        8.6193373898       -3.1832374941
 H        -5.9768089872        7.4568756256       -3.1571668443
 H        -4.0110468993        8.6683784812       -0.3576020247
 H        -4.9572558228        9.9849424112        0.1835919264
 H        -4.1134342492       10.2149606161       -1.2117809570
 Na      -11.2177899520        0.9987784663       -0.0588671289
