117

 C        -5.8720535967       11.0917631747       -2.9211363902
 C        -6.6856043106       10.0796527588       -2.1066748941
 O        -7.8341030780       10.2125004976       -1.8030687594
 C        -5.8366854353        8.8358343336       -1.5458987902
 C        -6.7771203056        7.9234204365       -0.6881538401
 O        -7.0853828777        6.8338350030       -1.1010485398
 C        -7.3647913274        8.5387381648        0.6609651936
 C        -8.7737884398        8.1364309534        1.1169226057
 C        -9.1392087871        8.3901546380        2.6017219232
 O        -8.3393650875        8.4306007818        3.5020680087
 C       -10.7073609859        8.2778211046        3.0327269953
 C       -10.9486111865        6.7531766289        3.1896794047
 O       -10.7432185900        6.0540352450        2.1847080588
 C       -11.0166908119        5.9519702183        4.5571797785
 C       -11.3995932397        4.4701102032        4.4561987014
 C       -12.7989492518        4.3151167279        3.9499343145
 O       -13.4800830369        5.2535552919        3.6828050046
 C       -13.2702713387        2.7841913316        3.7849554233
 C       -12.8933846470        2.4742037556        2.2917225983
 O       -12.0164196680        1.6736412861        2.0241045338
 C       -13.7293527917        3.0646281162        1.1441867268
 C       -12.9587572409        4.0514266175        0.2278981548
 C       -12.4542302370        3.4129991188       -1.1262299028
 O       -12.8156217957        2.3050588116       -1.3647901283
 C       -11.3830023622        4.2515747999       -2.0071928698
 C        -9.8568433651        3.6879349081       -1.7284421952
 O        -9.7389094597        2.6250520982       -1.1805988589
 C        -8.6072808337        4.4860148727       -2.2991564709
 C        -7.2794555774        3.8711345634       -1.9132960790
 C        -7.1762355748        2.4237876524       -2.4992937879
 O        -7.3243499455        2.1993278765       -3.7234515376
 C        -6.9526911614        1.1459716239       -1.6687328741
 C        -8.2457564895        0.3426077201       -1.7426262068
 O        -8.9411520376        0.2187836685       -0.7753175457
 C        -8.6215606658       -0.2646266836       -3.1046523540
 C       -10.1114244343       -0.7839159953       -3.1974174787
 C       -10.1905009116       -2.1680165692       -2.5515943395
 O        -9.2740864594       -2.9636089106       -2.6750311905
 C       -11.6113535239       -2.6309191207       -1.8874731114
 C       -11.7594368088       -2.1054537293       -0.4050324904
 O       -12.1908969535       -1.0067268658       -0.1290686013
 C       -11.5045764849       -3.1404905158        0.6893700934
 C       -12.7808057539       -1.8609538544       -2.6481891702
 C       -11.7561436532       -4.1413361785       -1.9997289982
 C        -5.7750346291        0.3499595063       -2.3469305588
 C        -6.6769122312        1.3339561945       -0.2086077278
 C       -11.5982038081        4.1216393365       -3.5430737904
 C       -11.3672563897        5.7921835443       -1.6277599641
 C       -12.5636648968        1.9019911831        4.7976281178
 C       -14.8098109867        2.6738553442        3.9357000243
 C       -10.7715712934        9.0611496453        4.3755879579
 C       -11.5314000832        8.8862730139        1.9121418905
 C        -5.2949583384        7.9656995343       -2.7304861041
 C        -4.7421932513        9.5146283439       -0.7000725895
 H        -5.4746266778       10.5930798073       -3.8206471290
 H        -5.0595097928       11.5881908751       -2.4335519485
 H        -6.5244460916       11.9156249022       -3.2032944116
 H        -7.2637198387        9.5948317315        0.4988130989
 H        -6.7556266384        8.3031644419        1.5243423391
 H        -8.8793062508        7.0536923019        0.9705476202
 H        -9.5086334912        8.6064003407        0.4955778735
 H       -11.5512356782        6.5624899001        5.3774454328
 H        -9.9953855293        6.0276627837        4.9173125862
 H       -11.1373990872        3.9361726330        5.3362400813
 H       -10.7709454104        3.9923721632        3.6362598778
 H       -14.6367077690        3.5109499925        1.4418510873
 H       -13.8846599087        2.1679010136        0.4606885995
 H       -11.9962814090        4.4145825398        0.6361007535
 H       -13.6381066697        4.8670326058        0.0501363470
 H        -8.6710186744        5.4784684462       -1.7315162520
 H        -8.7515623861        4.6546073762       -3.3412133832
 H        -7.0464328135        3.8974212516       -0.8590310975
 H        -6.4523433690        4.4415357913       -2.3866258747
 H        -7.8725677694       -1.0342414435       -3.4051635783
 H        -8.5228219400        0.5360858542       -3.8413600941
 H       -10.4074342959       -0.7195639059       -4.2383022554
 H       -10.8179493839       -0.0590677598       -2.7970346631
 H       -10.5588663507       -3.7386456997        0.6141327356
 H       -12.2981439105       -3.9018300042        0.6310291957
 H       -11.6091173066       -2.6791053925        1.6718894801
 H       -12.9412022730       -2.2280723005       -3.6675569060
 H       -12.5140086449       -0.7788501794       -2.5321485276
 H       -13.8094535238       -1.9015766042       -2.2078898808
 H       -12.6123672919       -4.4385389756       -1.3573420886
 H       -10.9032599637       -4.6245052458       -1.5440869946
 H       -11.8040384857       -4.5842431217       -2.9737986479
 H        -5.8535050830       -0.6609398749       -2.0559879093
 H        -4.8058651575        0.8026888594       -2.0645355984
 H        -5.7943948978        0.4547046680       -3.4241102176
 H        -7.5584801435        1.3062812417        0.4266203574
 H        -6.0570277260        2.1821740998        0.0499670042
 H        -6.1170587672        0.4662542711        0.1620915859
 H       -11.0924100650        4.9929338788       -4.0508167893
 H       -12.7004332317        4.0091925943       -3.7684222682
 H       -11.1642115225        3.2037938522       -3.9338880478
 H       -11.0762963765        5.8506792561       -0.5839963985
 H       -12.3098957107        6.2874662964       -1.9277118434
 H       -10.5336750608        6.1816055503       -2.2308317189
 H       -12.7137322156        0.8222226591        4.5758654123
 H       -12.9741696488        2.0991493747        5.7897631233
 H       -11.4748169275        1.9295071723        4.8063960770
 H       -15.2342648750        1.7085353016        3.6338253352
 H       -15.2590279090        3.4569600610        3.3156533352
 H       -15.1284907030        2.7484427257        4.9309556415
 H       -10.3147938395        9.9794468616        4.3355192722
 H       -10.2881610880        8.5333900934        5.1457840070
 H       -11.8353286072        9.2454931161        4.6841790564
 H       -12.5129600751        9.1205745343        2.2585995759
 H       -11.5475148943        8.1961472245        1.0517175879
 H       -11.1166192493        9.8462571907        1.5965353488
 H        -5.1593258960        6.8830360244       -2.5032698138
 H        -4.3631110567        8.3703770459       -3.1763240772
 H        -6.0767319323        7.9538837908       -3.5156464058
 H        -4.1235366526        8.8284346960       -0.2513064637
 H        -5.0903990828       10.2167920943        0.0614089103
 H        -4.1215020805       10.1617955591       -1.2777138051
 Na      -11.2045836278        0.9293804083       -0.1461447960
