117

 C        -5.7524072340       11.4664302472       -2.2639924510
 C        -6.5004519003       10.2127607924       -1.8258001965
 O        -7.6739068502       10.2138510824       -1.6415949464
 C        -5.7190993349        8.7626911756       -1.6577895850
 C        -6.6107489559        7.8577396852       -0.7436088670
 O        -7.0009910928        6.7667899659       -1.1152745661
 C        -7.0833097280        8.4350347608        0.5671457589
 C        -8.4552002417        7.8864412254        0.9594376281
 C        -9.1137369392        8.5543437259        2.1754925460
 O        -8.4216556164        9.2611659334        2.9050051326
 C       -10.8014069384        8.3997786444        2.5416367353
 C       -10.9710353225        6.8797656780        2.8950366469
 O       -11.0697984814        6.0010316125        2.0804138914
 C       -10.9406412027        6.4491125103        4.3754717131
 C       -11.4462399682        5.0020380171        4.5595953756
 C       -12.8727818771        4.7149966917        4.1768825265
 O       -13.7232742607        5.4823060055        3.8612595834
 C       -13.0587786912        3.1527386896        3.8324543546
 C       -12.8373998772        2.9518320614        2.3372006900
 O       -11.9766894621        2.2167767506        1.9144957450
 C       -13.8066056538        3.7663577307        1.4156661740
 C       -13.2266151657        4.5026323325        0.2258631360
 C       -12.4454790925        3.5599604107       -0.6961320181
 O       -12.6686555066        2.3481851506       -0.6953904293
 C       -11.4281632893        4.1589312959       -1.7221726086
 C        -9.9879787542        3.4816546223       -1.4604701808
 O        -9.8790497167        2.5162770367       -0.7732389427
 C        -8.8218612755        4.0832857455       -2.2297759129
 C        -7.5834200574        3.4034253401       -1.8119454759
 C        -7.2479099997        2.0527347062       -2.3351892522
 O        -7.0167982168        1.8898821166       -3.5340198074
 C        -6.9766263609        0.8029541047       -1.4314385910
 C        -8.3178084883       -0.0653158224       -1.7212759083
 O        -9.2197833833       -0.0923795187       -0.8985351836
 C        -8.4715978516       -0.7072133920       -3.1538590999
 C        -9.8326712119       -1.3032014779       -3.3230120478
 C       -10.2639470689       -2.3791546836       -2.3700307840
 O        -9.4664558799       -2.9491416666       -1.6456268297
 C       -11.8235983379       -2.6969883450       -2.3204296167
 C       -12.0673559816       -2.2574017897       -0.7638924340
 O       -12.2634937660       -1.0697830028       -0.5564863909
 C       -11.6109688358       -3.1900584720        0.2973066416
 C       -12.6633267502       -1.7893408572       -3.2329366139
 C       -12.1231750483       -4.1889597376       -2.5939518042
 C        -5.7134686251        0.1169314855       -1.9364029423
 C        -6.6748274178        1.1613888786        0.0862152187
 C       -11.8716621679        3.7530737671       -3.1533350847
 C       -11.2928068141        5.7188164074       -1.6562827149
 C       -12.0940637728        2.2876588990        4.6089577129
 C       -14.4324750922        2.6095604918        4.2099874389
 C       -11.2671442312        9.3751217118        3.6519430851
 C       -11.5712075787        8.6319729058        1.1184330874
 C        -5.3905752299        8.0983490608       -2.9824096979
 C        -4.3133920818        8.9492766277       -0.9917233501
 H        -5.1589884957       11.3690897506       -3.2026051387
 H        -4.9491808561       11.7335953696       -1.5264465698
 H        -6.4697128923       12.2122740224       -2.4138211225
 H        -7.1603170188        9.5121702633        0.4221899760
 H        -6.3269855050        8.1198788936        1.3158174284
 H        -8.3609964544        6.8126245632        1.0706102448
 H        -9.1858433856        7.9632097864        0.1342941140
 H       -11.5864729521        7.2044618611        4.8336466505
 H        -9.9792932391        6.6519063363        4.9593592181
 H       -11.1042855233        4.6039477410        5.5821226543
 H       -10.8549929138        4.4923023430        3.8059061153
 H       -14.3824705749        4.4761795364        2.1339612010
 H       -14.6166715832        3.1670325837        1.0085000478
 H       -12.4301238038        5.2158166838        0.4691278260
 H       -14.0201670708        4.9966444871       -0.4130736801
 H        -8.6926146007        5.1137369698       -2.0903766030
 H        -9.1235782095        3.7895693572       -3.2841415117
 H        -7.3847207062        3.3391361591       -0.7375608657
 H        -6.7798104430        4.0630968471       -2.2002138769
 H        -7.7264505392       -1.4654928446       -3.2349990806
 H        -8.0701410137        0.0525853537       -3.8381256231
 H        -9.9887993595       -1.7565007028       -4.3428840606
 H       -10.5061291471       -0.4624335290       -3.2566226828
 H       -10.5294262687       -3.1717660670        0.3057573616
 H       -11.9777017112       -4.2152386597        0.1763730530
 H       -11.8490394142       -2.8174557760        1.2680745312
 H       -12.4996711434       -1.9827432448       -4.3242491008
 H       -12.3738121581       -0.6959194768       -2.9910490981
 H       -13.6655888912       -1.9382436475       -2.9934633202
 H       -13.0522323493       -4.5388284613       -2.2163826963
 H       -11.3115340873       -4.8376978151       -2.1945643655
 H       -12.3392864331       -4.2697876930       -3.6707982024
 H        -5.8450772921       -0.9499908236       -1.6547932037
 H        -4.7887229930        0.4237555861       -1.3972399354
 H        -5.5720919180        0.2288108234       -2.9805818889
 H        -7.4466715925        1.7468337681        0.5954468591
 H        -5.7892940945        1.7909873138        0.1417199597
 H        -6.4761016007        0.2569800290        0.5877686101
 H       -10.9870526029        3.8243806383       -3.8263927657
 H       -12.6091562990        4.4456827252       -3.5278739977
 H       -12.3128573576        2.6959648637       -3.2385415123
 H       -10.8685559716        5.9401412013       -0.7363254229
 H       -12.3437592989        6.1462283973       -1.6767014179
 H       -10.7096380911        5.9851191950       -2.5283799533
 H       -12.3147048810        1.2067095986        4.4230187908
 H       -12.1512954693        2.3323419949        5.7421076636
 H       -11.0428322152        2.4788841875        4.4229002677
 H       -14.6598495429        1.7688027832        3.5783879198
 H       -15.1623227212        3.4111985974        4.0980105631
 H       -14.4859315627        2.3707542596        5.2622120754
 H       -10.9182176942       10.4026260518        3.4769089380
 H       -11.0876603542        9.1127542928        4.6412416403
 H       -12.3894859853        9.4179147115        3.5149436721
 H       -12.5318145208        9.1625186046        1.1986170944
 H       -11.8404493654        7.6829079885        0.7725216443
 H       -10.8967619056        9.1611139958        0.4687507624
 H        -4.3755383367        7.6773561025       -2.9264346241
 H        -5.3002074748        8.7795468398       -3.8568957392
 H        -6.0799705847        7.3220283135       -3.2831601898
 H        -3.6683412165        8.0640435164       -0.8389312600
 H        -4.3524016487        9.4356277589       -0.0789321750
 H        -3.7272318728        9.5557775124       -1.6850949474
 Na      -10.9288680539        0.8118558124        0.2488932038
