117

 C        -5.5439309749       11.3562341506       -2.0489139042
 C        -6.4533191553       10.1333179750       -1.6918070033
 O        -7.6357132602       10.2046125860       -1.6420715697
 C        -5.7009025778        8.7587775883       -1.5869775378
 C        -6.6069419132        7.6647044121       -0.8008253177
 O        -7.0660682021        6.6724016369       -1.3323234286
 C        -7.0454356200        8.0932383408        0.6385109607
 C        -8.5476221868        7.8698376006        0.8730505564
 C        -9.2007769321        8.6586725372        1.9449607894
 O        -8.5670396655        9.4285731537        2.6647854792
 C       -10.7871677158        8.5257312502        2.1431632244
 C       -11.1247204812        7.0291069006        2.6820855451
 O       -10.8968868116        6.0599112281        1.9718869723
 C       -11.2888452076        6.8715291258        4.2151667615
 C       -11.2368804707        5.3359191653        4.6007917219
 C       -12.5674708004        4.7617050496        4.2525581560
 O       -13.5471347807        5.4539681853        4.2545999674
 C       -12.8812559541        3.2074897904        3.9808901079
 C       -12.6992440607        2.9540671797        2.4186764448
 O       -11.7997739064        2.2408676205        2.0428520844
 C       -13.6781230097        3.5767653343        1.3455290845
 C       -13.0108558616        4.4420486566        0.2816841190
 C       -12.3544346064        3.5772949249       -0.7979121405
 O       -12.7163738068        2.4093611951       -0.8791809512
 C       -11.3975387643        4.1517186598       -1.8728734411
 C        -9.9402759959        3.6073034095       -1.4002969933
 O        -9.8941084452        2.8176296598       -0.5039658066
 C        -8.6382632584        4.1630596931       -2.0593067754
 C        -7.4124584530        3.4266400449       -1.5796187835
 C        -7.3262764361        2.0023950240       -2.2010948420
 O        -7.5267628021        1.8273776301       -3.3684691493
 C        -7.0205334885        0.6471866271       -1.2543314044
 C        -8.2536037615       -0.2340631676       -1.5871141785
 O        -9.2879045914       -0.1214548474       -0.9064493387
 C        -8.2031540776       -1.1041927284       -2.8434018822
 C        -9.6227534573       -1.4430056871       -3.3314100368
 C       -10.2380837244       -2.5516079772       -2.5318637565
 O        -9.5051025220       -3.3924633349       -2.0685813147
 C       -11.8741265368       -2.6446704759       -2.2940323766
 C       -12.0402875789       -2.1516085139       -0.8602105121
 O       -12.2213847231       -0.9784905856       -0.5333252265
 C       -12.0489085855       -3.1737357951        0.2692223409
 C       -12.7049021675       -1.8327125656       -3.3538554583
 C       -12.1173149799       -4.1355546334       -2.5303313663
 C        -5.7330410695       -0.0508191971       -1.7081969928
 C        -6.9425641114        0.7702440349        0.2696134528
 C       -11.7980671251        3.7667101041       -3.3323365592
 C       -11.3843662835        5.7650579086       -1.8614443226
 C       -11.9686551282        2.2448597350        4.7392585579
 C       -14.3360051408        2.9332191240        4.4589587284
 C       -11.2909699892        9.6451721271        3.1150680781
 C       -11.4767968863        8.8461424013        0.7792988094
 C        -5.5240165028        8.3297494190       -3.0946439613
 C        -4.3232223731        8.8813334014       -0.8931598454
 H        -4.5176719049       11.0567290376       -2.1777955935
 H        -5.4569039658       12.1282617941       -1.2519712768
 H        -5.8270674686       11.7542935033       -2.9761183125
 H        -6.9115957627        9.1645866831        0.7200319829
 H        -6.4690394930        7.5615460780        1.3503392006
 H        -8.6829260037        6.8365432137        1.1595375816
 H        -9.1962981886        7.9530668890       -0.0126456017
 H       -12.1847292732        7.2466443991        4.6754048285
 H       -10.4822256061        7.4917231848        4.7252013191
 H       -11.1336020439        5.3958068919        5.6958053898
 H       -10.3908828937        4.8020887588        4.2280683081
 H       -14.5375501086        4.0586520401        1.8291895133
 H       -14.1626271255        2.7164759989        0.9608204750
 H       -12.1884568683        4.9846321660        0.7301858472
 H       -13.6362726377        5.1491778591       -0.2176575716
 H        -8.6020017224        5.2031696354       -1.7962211205
 H        -8.7796081602        4.0155309568       -3.1565736378
 H        -7.3525146071        3.2871356275       -0.4903378820
 H        -6.5031115431        3.9232126642       -1.8264451543
 H        -7.7103644226       -2.0898515747       -2.5989686914
 H        -7.4684376776       -0.7159169521       -3.5331044410
 H        -9.3388523214       -1.9524126928       -4.2265626384
 H       -10.2995270183       -0.5467265408       -3.5139819343
 H       -11.1833083732       -3.8428107312        0.3051158691
 H       -12.9959754469       -3.7551305733        0.1301349009
 H       -12.0080409185       -2.7368650614        1.2838271214
 H       -12.1883315635       -1.8918527920       -4.3317926646
 H       -12.6686119243       -0.7281674819       -3.2226123657
 H       -13.6780991740       -2.2116894155       -3.2994406863
 H       -13.1409542322       -4.3967984588       -2.3825111243
 H       -11.5136233211       -4.6778301254       -1.7953286479
 H       -11.8186705112       -4.4385252643       -3.5507578356
 H        -5.6297635328       -1.0901086734       -1.2975994115
 H        -4.9106746336        0.4818409655       -1.3118882428
 H        -5.7269844561       -0.1623017985       -2.7707998151
 H        -7.9716928096        0.9400061026        0.6425716599
 H        -6.3402821112        1.6762911731        0.5003132057
 H        -6.4810435774       -0.1118771049        0.7562926677
 H       -11.4223265785        4.4306050267       -4.0762625546
 H       -12.8373486730        3.7967800913       -3.4576309304
 H       -11.3994228135        2.7509179355       -3.5813310684
 H       -11.1450709801        6.0694760093       -0.8480146188
 H       -12.3985328117        6.1141601863       -2.1119749434
 H       -10.6817256962        6.0653540553       -2.6323051940
 H       -12.2538073639        1.2664275744        4.5216261960
 H       -12.0129852178        2.3384000063        5.8022267200
 H       -10.9395565637        2.3555786358        4.5338757805
 H       -14.4981094857        1.8652421497        4.3196010386
 H       -15.1143258009        3.5546162456        4.0171033381
 H       -14.3024849651        3.1447706842        5.5680116906
 H       -11.5877548145       10.5044268010        2.4803397052
 H       -10.5654663494       10.0166685460        3.7799596331
 H       -12.1209504373        9.3298620877        3.7057111838
 H       -12.5829909755        8.7351778884        0.8805635520
 H       -11.1344752045        8.1124771643        0.0234206401
 H       -11.1458039791        9.8388014413        0.4523497733
 H        -4.4774945501        8.2455995174       -3.3472383120
 H        -5.9640058538        9.0065655161       -3.8028629542
 H        -5.9546331981        7.3570890537       -3.3290876957
 H        -3.9082259702        7.8737733905       -0.5613968978
 H        -4.4417809266        9.3818095984        0.0293201120
 H        -3.5160716462        9.2882937105       -1.4942659883
 Na      -11.3573397964        0.8094194552        0.4055818932
