117

 C        -5.5901932704       11.3012217757       -1.9434457035
 C        -6.4858794830       10.1518673421       -1.6728987120
 O        -7.6764653640       10.3724718445       -1.5812884078
 C        -5.7566953487        8.6740886391       -1.5509455003
 C        -6.6473530649        7.7237341020       -0.8110765288
 O        -7.0714031134        6.6864290362       -1.2962734743
 C        -7.0800968817        8.0878961777        0.6047003657
 C        -8.5555304332        7.7807650639        0.7006022154
 C        -9.1583027815        8.6547280007        1.8168480987
 O        -8.4932421111        9.3730303388        2.4857761697
 C       -10.7703127819        8.6328744471        2.0700060924
 C       -10.8874169784        7.2145572505        2.7219249104
 O       -10.7876480673        6.3147368784        1.9325667839
 C       -11.1365225611        6.9657805977        4.1733796347
 C       -11.2830930399        5.4489988518        4.5052174821
 C       -12.6768427592        4.8689130162        4.2794577588
 O       -13.6581549911        5.5599019022        4.3365387568
 C       -12.8411600455        3.2142921778        4.0506987038
 C       -12.6764577316        2.9583893151        2.4771117492
 O       -11.7293282699        2.2697349601        2.1723263172
 C       -13.5921896377        3.5227497039        1.3977727370
 C       -12.9277243488        4.3390574239        0.3349259799
 C       -12.4248031084        3.5091039604       -0.8646720446
 O       -12.6921948197        2.3359181006       -0.9985081306
 C       -11.3652396871        4.1105639535       -1.8465515753
 C        -9.9402371715        3.5990313679       -1.3512963927
 O        -9.8507742795        2.8635954076       -0.4403795092
 C        -8.6675843339        4.2096507040       -1.9007791247
 C        -7.4669578460        3.3780164781       -1.5548297591
 C        -7.3432540852        1.9249170868       -2.0510587985
 O        -7.5636633441        1.7123667492       -3.2591500168
 C        -7.0460728159        0.6489696675       -1.1773392629
 C        -8.3003767299       -0.3354159286       -1.5611548369
 O        -9.3366094318       -0.2630529430       -0.9685139221
 C        -8.2624157131       -1.1079310964       -2.9398251322
 C        -9.7260142744       -1.4842767324       -3.3210530246
 C       -10.2610859009       -2.6602506653       -2.5110575752
 O        -9.5999267441       -3.5818141821       -2.0986875540
 C       -11.8022713189       -2.7499180268       -2.2964259688
 C       -12.1233269632       -2.1529365244       -0.8673649317
 O       -12.1924365340       -0.9687356928       -0.6694730927
 C       -12.1602787613       -3.1870420189        0.3113541426
 C       -12.5084277687       -1.8324206404       -3.3516784305
 C       -12.3040587887       -4.1612279826       -2.4862656736
 C        -5.5662153511        0.1798180966       -1.6394789053
 C        -7.0576367405        0.7912472846        0.3588885287
 C       -11.7178107563        3.7088622417       -3.3134889122
 C       -11.3353971263        5.6950733412       -1.8787087061
 C       -11.8786546905        2.3078213775        4.7998229913
 C       -14.2808884618        2.8931063982        4.5191555298
 C       -11.3417197361        9.7209992273        3.0063403855
 C       -11.4786380734        8.7518051106        0.6439058242
 C        -5.4839350338        8.2331867083       -3.0091800163
 C        -4.3820089808        8.7374671188       -0.8132071200
 H        -4.4893520509       11.1576756536       -1.9226467914
 H        -5.7854473311       12.0649957841       -1.1945931563
 H        -5.8333313146       11.6551559098       -2.9058059687
 H        -7.0421766067        9.1253640028        0.8341751058
 H        -6.4374899215        7.5178521574        1.2710164911
 H        -8.7946405714        6.7464944875        0.8235433517
 H        -9.0615014778        8.0821856247       -0.2006872124
 H       -12.0689576837        7.4532188854        4.5254706051
 H       -10.3441242158        7.5287756387        4.7894828620
 H       -10.9050708510        5.3194428873        5.5636437839
 H       -10.6070304660        4.9239960191        3.8452153101
 H       -14.4772032250        4.0899139831        1.8075564177
 H       -14.1152505692        2.6512296098        1.0662017714
 H       -12.1421130454        4.9697015530        0.7403854704
 H       -13.6756154199        5.0511503435       -0.0966331044
 H        -8.5910714726        5.1471959902       -1.4090325637
 H        -8.7607140122        4.3414269803       -3.0242238690
 H        -7.2475523664        3.3507165218       -0.4887949166
 H        -6.5682459884        3.8659215302       -1.9968378894
 H        -7.5779013433       -1.9338933910       -2.8113542428
 H        -7.6690587785       -0.5238526358       -3.6611101975
 H        -9.7571813461       -1.5542508401       -4.4300531092
 H       -10.2795826180       -0.6840615972       -2.9088189035
 H       -11.4345644137       -4.0323547735        0.1316691462
 H       -13.2091063647       -3.6211268322        0.3212223962
 H       -11.8497690089       -2.8626299167        1.3143096696
 H       -12.0554553283       -1.8292668247       -4.3472842521
 H       -12.2476967588       -0.7547748298       -3.0620222173
 H       -13.5583067173       -2.0004177583       -3.2684706090
 H       -13.3342862449       -4.2272149580       -2.1606806188
 H       -11.6924299204       -4.8634952999       -1.8998384660
 H       -12.1722771744       -4.4413079384       -3.5365701621
 H        -5.3374769288       -0.8201007496       -1.3172272551
 H        -4.8653944492        0.8482317695       -1.1097280956
 H        -5.4522824825        0.1592085346       -2.6629871359
 H        -8.0945822940        1.0997041667        0.6564047988
 H        -6.3648078463        1.6276309778        0.5905708002
 H        -6.7533927420       -0.0963957856        0.8924108461
 H       -11.1983325521        4.3346601813       -4.0819406530
 H       -12.7693375925        3.9155565606       -3.5309964449
 H       -11.4359319177        2.6612549766       -3.5415008803
 H       -11.2400186535        5.9795302931       -0.8790151741
 H       -12.3147121209        6.1016204393       -2.3329392379
 H       -10.4732240413        5.9866447542       -2.4912683764
 H       -12.2237189213        1.2829843270        4.6939054294
 H       -11.8192960690        2.5162549194        5.8571387599
 H       -10.8924587818        2.3121664701        4.4651067937
 H       -14.5028225293        1.8177811911        4.4845710781
 H       -15.0147608718        3.5297608300        3.9807091895
 H       -14.2823508300        3.2028025642        5.5378373193
 H       -11.6561175045       10.5283524175        2.4216370494
 H       -10.7265257250       10.0674943088        3.7515612090
 H       -12.2223294513        9.2575347770        3.5065009346
 H       -12.5537224747        8.4674002124        0.5674282448
 H       -10.8851851622        8.1727555749       -0.0111715745
 H       -11.2724079722        9.7780096677        0.3022179128
 H        -4.3947306581        8.2653413236       -3.2145632343
 H        -6.0120146863        8.8014283407       -3.8188753779
 H        -5.7377565405        7.1913457243       -3.1850809258
 H        -3.8239254282        7.8097318934       -0.7115555117
 H        -4.5571880032        9.0604382285        0.1697968634
 H        -3.7146738802        9.4212551372       -1.3210742627
 Na      -11.3988436706        0.9386559350        0.1448370074
