117

 C        -5.5225345253       11.4329369495       -1.8911333413
 C        -6.4070209017       10.2237850365       -1.6466815221
 O        -7.6384763223       10.2053371083       -1.4626632604
 C        -5.7789782978        8.7561185826       -1.5867782498
 C        -6.7064313348        7.7193114525       -0.8510112388
 O        -7.0221963168        6.6535487447       -1.3576157071
 C        -7.1148357270        8.0574868929        0.5799546506
 C        -8.6508570369        7.8888035456        0.6325453712
 C        -9.2236533176        8.8370679443        1.7500814194
 O        -8.4155914641        9.4019691451        2.4628209903
 C       -10.7498036523        8.7326339481        1.9555422901
 C       -10.8670404545        7.2747458444        2.5785734595
 O       -10.7028930615        6.2956266418        1.8386754846
 C       -11.0811483848        6.9929167512        4.0977702958
 C       -11.2620021506        5.4948900905        4.3847210636
 C       -12.7117923938        4.9019451815        4.2953659360
 O       -13.7290095098        5.5968870187        4.3621449954
 C       -12.8091190693        3.3563850800        4.1155497814
 C       -12.6134931757        2.9358717542        2.5339728753
 O       -11.6358069665        2.2212314704        2.2491953717
 C       -13.6207673711        3.4825858988        1.5371534632
 C       -12.8251847063        4.2414065206        0.3903052434
 C       -12.4139809301        3.4648118719       -0.9182454630
 O       -12.7793596303        2.3257777529       -1.1581046703
 C       -11.3175943972        4.1365947051       -1.8110691395
 C        -9.9402672021        3.6266214945       -1.2573178549
 O        -9.9098240582        2.7289978582       -0.3707590974
 C        -8.6251583424        4.1715950550       -1.8610943555
 C        -7.3920836561        3.3288613511       -1.4192259326
 C        -7.4885881806        1.8415679744       -1.9939209624
 O        -7.5939014024        1.6873104944       -3.1930745659
 C        -7.1668861515        0.6435699337       -1.1327222404
 C        -8.2375186576       -0.3287685508       -1.5930391162
 O        -9.2570965990       -0.3474850052       -0.9392317859
 C        -8.3004600609       -1.1125016094       -2.8967013351
 C        -9.7177572883       -1.5412287655       -3.2473168255
 C       -10.2701683098       -2.7891991808       -2.4756969399
 O        -9.5938851233       -3.7191173317       -2.1288462424
 C       -11.8578273873       -2.7950770342       -2.3039462886
 C       -12.0629526186       -2.2530713231       -0.9293636066
 O       -12.2160874817       -1.0371355331       -0.7882376567
 C       -12.2413091123       -3.1336418205        0.2757668216
 C       -12.5162659045       -1.7581761504       -3.3486522231
 C       -12.5203883731       -4.2235429038       -2.4468958747
 C        -5.6799811668        0.3359880578       -1.5607827625
 C        -7.2077269219        0.9170504350        0.3875364476
 C       -11.5654319342        3.5447513801       -3.2569427312
 C       -11.3313375712        5.6885596045       -1.8098476715
 C       -11.7710757260        2.5857050796        4.8673547037
 C       -14.2996821526        2.8982928742        4.4874295924
 C       -11.2681475171        9.8448162717        2.8881090918
 C       -11.5180066951        8.6042576768        0.6646362737
 C        -5.4754069878        8.1491793562       -2.9883152224
 C        -4.5232240470        8.6793615097       -0.7173788053
 H        -4.4504043638       11.2773445252       -1.7958728970
 H        -5.7989886480       12.2084352158       -1.2192327445
 H        -5.7175771261       11.7845657159       -2.9598611302
 H        -6.8875131487        9.0661276720        0.9450741833
 H        -6.5814462020        7.3173821343        1.2328526971
 H        -8.8659853288        6.8565807169        0.9648045318
 H        -9.1398599370        8.0104492468       -0.3121122813
 H       -11.9803782257        7.5276956645        4.5403616222
 H       -10.2341729298        7.4463044888        4.6131607684
 H       -10.7969559828        5.2443023567        5.3407859127
 H       -10.6392525859        5.0345979987        3.5595662012
 H       -14.3332301567        4.1675228921        1.9840466432
 H       -14.3440047233        2.6297378742        1.3130350088
 H       -11.9751131803        4.8168444985        0.8227558818
 H       -13.5173075500        5.0368812133       -0.0149482010
 H        -8.5562591116        5.2224016074       -1.4630325774
 H        -8.7582394961        4.1750805956       -2.9296863786
 H        -7.2522460801        3.3178358011       -0.3373827054
 H        -6.4136346875        3.7070909662       -1.8255731880
 H        -7.5206986489       -1.8414525333       -2.8419157736
 H        -7.9166933679       -0.4853919021       -3.7116307701
 H        -9.5934526080       -1.7256105021       -4.3284256616
 H       -10.2490534413       -0.6656302786       -2.9863528298
 H       -11.6299655250       -4.0523211911        0.2620517447
 H       -13.2982487656       -3.3771431787        0.3623085439
 H       -11.8820606495       -2.6446213631        1.1978418371
 H       -12.1113501892       -1.9038007721       -4.3344676326
 H       -12.2306283173       -0.7497600550       -3.1878240591
 H       -13.6565500222       -1.8550783553       -3.2664424722
 H       -13.5252451628       -4.2794033867       -1.9239041525
 H       -11.8533507280       -4.9446440226       -1.9971660151
 H       -12.5092185862       -4.4890563846       -3.4918510210
 H        -5.3332278202       -0.5964238211       -1.2471560494
 H        -5.1029326622        1.1217347918       -1.0762536907
 H        -5.5519096952        0.2956681321       -2.6650163808
 H        -8.1745818321        1.3371250061        0.6332458090
 H        -6.3943669975        1.5947360679        0.6392724306
 H        -7.0928558436       -0.0071913348        0.9518150045
 H       -10.7921662261        3.7720104325       -4.0409155389
 H       -12.5247885151        3.9498172215       -3.7399334620
 H       -11.5657835642        2.4768410190       -3.1517905479
 H       -11.1676874035        5.9390691934       -0.7321969665
 H       -12.2500107867        6.0600564324       -2.1971340894
 H       -10.4771957158        6.0190405952       -2.4154464382
 H       -11.9615729747        1.4924203051        4.8207239837
 H       -11.7018560795        2.8723106271        5.9112823496
 H       -10.7285546905        2.6791459090        4.4570423916
 H       -14.3987337674        1.8225094938        4.3434694403
 H       -15.0089096297        3.4783468482        3.9020762802
 H       -14.4230412279        3.0920349876        5.5257020579
 H       -11.2383779082       10.7915480001        2.4234638874
 H       -10.5555808491        9.8527004724        3.7713857494
 H       -12.2246496381        9.6052315851        3.2974517223
 H       -12.5499472275        8.4715226745        0.9070179535
 H       -11.0939877899        7.8194409754        0.0477868092
 H       -11.3889447593        9.5248640050        0.1075494302
 H        -4.4508243281        8.2830890888       -3.3890985011
 H        -6.2241179074        8.4173731673       -3.7693016344
 H        -5.5570948716        7.0401647580       -2.9019909608
 H        -4.0898241784        7.7436643223       -0.7814364975
 H        -4.7507609372        8.8248278654        0.3714915441
 H        -3.7864975650        9.4020648682       -1.0448035940
 Na      -11.3014377506        1.0920398945       -0.0830845794
