117

 C        -5.5308593319       11.3195800992       -1.8632226417
 C        -6.3766051879       10.0665688978       -1.4686430615
 O        -7.5637279215       10.1134866298       -1.3124679815
 C        -5.6003521540        8.6200311517       -1.5944433671
 C        -6.5710034636        7.5692792233       -0.9357442895
 O        -6.9620197524        6.6225726579       -1.5892747594
 C        -7.1379043847        7.9456335572        0.4466891520
 C        -8.6424550989        8.2598326949        0.4011035200
 C        -9.2878671726        8.8745308903        1.6043496735
 O        -8.7100656772        9.5508524088        2.4070768502
 C       -10.8366769146        8.7131751124        1.9475788364
 C       -10.9269850152        7.2612267106        2.4420694952
 O       -10.7566164799        6.3167641423        1.6985328250
 C       -11.2232431718        7.0482013148        3.9436100283
 C       -11.2121106067        5.5513407422        4.3096131309
 C       -12.6244852132        5.0047675867        4.2111709698
 O       -13.6261421097        5.6791488758        4.2577313580
 C       -12.6988544995        3.4562298528        4.0341896579
 C       -12.4584399675        2.8498355135        2.5253964511
 O       -11.6033687078        2.0669540249        2.2253203548
 C       -13.4226289860        3.4219133785        1.4426274318
 C       -12.7473989906        4.3006787128        0.4320407124
 C       -12.4585571880        3.4786055071       -0.8407050970
 O       -13.1594024233        2.5336824326       -1.1320162514
 C       -11.2073328257        3.9572390378       -1.7601171561
 C        -9.8287725734        3.5398188639       -1.1137107127
 O        -9.6830556521        2.7129839246       -0.2983353648
 C        -8.5814570429        4.2787372947       -1.7373398144
 C        -7.4123212277        3.4618894197       -1.3393073684
 C        -7.5697651180        2.0647620199       -1.9204998235
 O        -7.8270718213        1.9902676880       -3.1213630375
 C        -7.3307660751        0.6238427458       -1.1050198946
 C        -8.4418914035       -0.3704383817       -1.3974566094
 O        -9.3750640934       -0.5390038465       -0.6204934453
 C        -8.2498829062       -1.3396341724       -2.5726850498
 C        -9.5935201848       -1.7574397561       -3.3398036892
 C       -10.3363305727       -2.8421963287       -2.5938336256
 O        -9.8231551220       -3.8509757032       -2.1707032851
 C       -11.9884060349       -2.7609837053       -2.3584493077
 C       -12.1299926216       -2.1265239405       -0.9332703436
 O       -12.1469764872       -0.9292928127       -0.8221108718
 C       -12.2611853826       -3.0484974958        0.2336512883
 C       -12.7437026691       -2.0050382303       -3.4256461279
 C       -12.4936739802       -4.2348446058       -2.4434486026
 C        -5.8802969926        0.0902540934       -1.3576268727
 C        -7.3839638417        0.9575738317        0.4077859552
 C       -11.2692269614        3.3642459466       -3.2007222845
 C       -11.3496668477        5.5236698087       -1.8028489139
 C       -11.7065854341        2.9275538533        5.1366022917
 C       -14.0901236966        2.9101668711        4.4949202584
 C       -11.2022959106        9.8851417124        2.8890544677
 C       -11.6746976520        8.8658019240        0.6152116092
 C        -5.2690183359        8.3706490447       -3.0273594227
 C        -4.2787755964        8.7186376026       -0.7568307236
 H        -4.4540161992       11.1189884617       -1.6534694313
 H        -5.8480189240       12.2610499684       -1.3148048920
 H        -5.5805444821       11.5209119590       -2.8888798391
 H        -6.6190252363        8.8704614437        0.8035459925
 H        -6.9036501518        7.2031611401        1.2244423485
 H        -9.2415583659        7.4103863035        0.0447541834
 H        -8.8046049032        9.1277447462       -0.3094573386
 H       -12.1995845308        7.4379174249        4.0390268734
 H       -10.5438635134        7.6794427230        4.5509078588
 H       -10.8206329725        5.3493792324        5.3164343072
 H       -10.5292899469        5.1692042549        3.6071825978
 H       -14.2105921519        4.0493263988        1.9092965766
 H       -14.0572447566        2.7268742087        0.9622153841
 H       -11.8073700931        4.7152160301        0.7744186352
 H       -13.4115616011        5.1210857402        0.2414147678
 H        -8.3859558893        5.2826120167       -1.4182266625
 H        -8.7552448800        4.2525050036       -2.8442991126
 H        -7.2771661838        3.3866912839       -0.2656984314
 H        -6.5187669898        3.8978409034       -1.7308778631
 H        -7.8321176374       -2.2097241075       -1.9772421117
 H        -7.3809537320       -1.0744847191       -3.1823667973
 H        -9.2193212710       -2.2260152446       -4.2426935369
 H       -10.1896869600       -0.8079209156       -3.4559779190
 H       -11.6603607203       -3.9193868512        0.1959578378
 H       -13.3032479970       -3.3097039115        0.2185652075
 H       -12.0696019739       -2.5263858805        1.1221214998
 H       -12.3391785995       -2.2919267680       -4.3984775417
 H       -12.5458175657       -0.9017211159       -3.3638093348
 H       -13.7588600201       -2.1416606225       -3.3838219472
 H       -13.4404731679       -4.2394050342       -1.9957627821
 H       -11.8369695377       -4.9987207609       -1.9531716699
 H       -12.4523204085       -4.5413963068       -3.5022778933
 H        -5.6581529005       -0.7074515374       -0.5683783841
 H        -5.1561030745        0.9367606445       -1.3419319663
 H        -5.7480842785       -0.4868993549       -2.2478751532
 H        -8.3453584848        1.4071657489        0.6488759190
 H        -6.5054403214        1.5348296819        0.6397689906
 H        -7.3339930213        0.0540584420        0.9724354003
 H       -10.2821473523        3.3094267941       -3.5887669566
 H       -11.7338035943        3.9821897492       -3.8790877815
 H       -11.6582853966        2.3388879367       -3.2796695815
 H       -10.9494461699        5.8713734732       -0.9155052402
 H       -12.4512559372        5.7439208505       -1.9322784773
 H       -10.7922839762        5.9316865280       -2.6365761970
 H       -11.7097691794        1.8394527519        5.2715737024
 H       -11.9495376643        3.4068855184        6.1327628518
 H       -10.6677526566        3.0946997918        4.9346750432
 H       -14.0768296159        1.8534848957        4.2506341748
 H       -14.8693803485        3.4467414542        3.9604346844
 H       -14.1287430343        2.9614856741        5.5908010579
 H       -10.6685161302       10.7821281455        2.4814760728
 H       -10.9401324167        9.7673273418        3.9026927612
 H       -12.3434239531       10.0360744061        2.8407544487
 H       -12.6729393963        9.2377336449        0.8989946427
 H       -11.6616285661        7.8970839247        0.1631675375
 H       -11.3009363880        9.5649782570       -0.1290183588
 H        -5.0250907325        9.2724196550       -3.5520313995
 H        -6.1036139682        7.9009270607       -3.4990734153
 H        -4.4121771306        7.7653879043       -3.1919478561
 H        -3.9772761804        7.6232066703       -0.4920344581
 H        -4.4401943224        9.2147209803        0.1864512646
 H        -3.4331189384        9.2564722992       -1.2727437548
 Na      -11.1885657895        0.8923583680       -0.1805836990
