117

 C        -5.4671296335       11.2529713658       -1.8365463076
 C        -6.2369672277       10.0228071436       -1.5233315219
 O        -7.4629052783       10.1708185367       -1.3852726331
 C        -5.5501696394        8.7128772690       -1.5683061050
 C        -6.5380662858        7.6585216086       -0.9650789335
 O        -6.8553329390        6.6929512662       -1.6233479542
 C        -7.2313099442        7.8715656499        0.4312050983
 C        -8.7142629190        8.2586626669        0.2511227547
 C        -9.2875936517        8.9742895122        1.5373820846
 O        -8.5942678131        9.5296386162        2.3309695146
 C       -10.9284335136        8.8468234435        1.8550889584
 C       -11.0762133864        7.3489910569        2.3987575275
 O       -10.8098998997        6.4369500259        1.6585300396
 C       -11.2955359488        7.1663565306        3.8862346071
 C       -11.2028504681        5.6714637603        4.3193865063
 C       -12.5471979130        4.9631594675        4.1115426177
 O       -13.5648901136        5.6472815858        4.0953371249
 C       -12.6344354489        3.3404655300        4.0341298194
 C       -12.3669116680        2.9082652510        2.5991729083
 O       -11.5847455013        1.9818478250        2.2515186660
 C       -13.3813775917        3.4425250543        1.5412872996
 C       -12.6898041967        4.2876177828        0.4863900123
 C       -12.3979851562        3.4990582270       -0.8501768372
 O       -13.1509523211        2.5625967871       -1.1100035773
 C       -11.2454075954        3.9552917315       -1.7991823418
 C        -9.8449903415        3.6099434886       -1.1339887925
 O        -9.7354395072        2.7360773555       -0.2748780985
 C        -8.5826118107        4.3655946076       -1.5189012112
 C        -7.2788232651        3.4853661191       -1.3126771452
 C        -7.5157786228        2.0391334536       -1.8794742491
 O        -7.9447300751        1.9309205026       -3.0213097945
 C        -7.3894798146        0.7004886041       -1.0278686245
 C        -8.4939600658       -0.4785358161       -1.3369234164
 O        -9.4275980287       -0.5721428213       -0.5882355415
 C        -8.3197126616       -1.5523062731       -2.4307292006
 C        -9.6369301666       -1.8372731781       -3.3052248789
 C       -10.4642909548       -2.8425540001       -2.5990615973
 O        -9.9033857900       -3.8321773582       -2.1874307897
 C       -12.0135744373       -2.7878764282       -2.4256742141
 C       -12.1793656289       -2.1509745120       -0.9931482099
 O       -12.1872607626       -0.9270412198       -0.9540858534
 C       -12.2515839548       -3.0177819006        0.2331493888
 C       -12.7014536675       -1.9422777687       -3.5312262641
 C       -12.4250787730       -4.3105410446       -2.3244194141
 C        -6.0735878482       -0.0102495057       -1.3235547516
 C        -7.3547761885        0.9842910591        0.5696914685
 C       -11.3291589251        3.2374723754       -3.1369020935
 C       -11.3013402329        5.5030415892       -1.9159669664
 C       -11.6231538019        2.7576280309        5.0782272066
 C       -14.0862093798        2.9103736926        4.4885064434
 C       -11.3678259346        9.7739656572        2.9377449903
 C       -11.6777496896        9.0435290105        0.4853412851
 C        -5.1797971142        8.4718042835       -3.0452253932
 C        -4.1405438426        8.7280914083       -0.7892543620
 H        -4.4134642647       11.0766432978       -1.5682484444
 H        -5.8533005390       12.1061078379       -1.3425009814
 H        -5.4584665455       11.4993683258       -2.8967589124
 H        -6.7032827062        8.5036592331        1.1037116822
 H        -7.2840521333        6.9393992122        1.0041488065
 H        -9.2711253252        7.3294493685        0.1400804786
 H        -8.9108401443        8.9217030182       -0.5835765185
 H       -12.2598969286        7.6276853214        4.0815941087
 H       -10.4716721985        7.7583329459        4.3769139413
 H       -10.9544410074        5.5923773564        5.4016440018
 H       -10.3530362844        5.3473782351        3.7813369104
 H       -14.2514396871        3.9497768891        1.9805873917
 H       -13.8786281420        2.6837160980        1.0004060926
 H       -11.8046228464        4.7571521577        0.8063797957
 H       -13.3890744368        5.0695272777        0.1978477013
 H        -8.4941677611        5.2229947783       -0.9030939981
 H        -8.7595641924        4.6888249328       -2.5913603262
 H        -6.9148668722        3.4533257611       -0.3073932542
 H        -6.4981029761        3.9767102409       -1.9149667352
 H        -7.9013028290       -2.4597624252       -1.9966453562
 H        -7.4805267380       -1.1227783553       -3.0274446470
 H        -9.2500667335       -2.3191330196       -4.2631107014
 H       -10.1000620992       -0.9042908774       -3.4059833170
 H       -11.4473907989       -3.7790938068        0.2458599460
 H       -13.2312763566       -3.5075817406        0.2388402128
 H       -12.2075716040       -2.3651981058        1.1070450907
 H       -12.5359059338       -2.2331847803       -4.5582266956
 H       -12.4383305393       -0.8737105527       -3.4009920536
 H       -13.8163196001       -1.9495366840       -3.3592736056
 H       -13.4751160096       -4.3092181643       -2.0938489430
 H       -11.8838504857       -4.9267577482       -1.6288250929
 H       -12.1788550502       -4.7136137031       -3.2785026828
 H        -6.0266257415       -0.8300776719       -0.6444820401
 H        -5.1354329843        0.6278132492       -1.3418004188
 H        -6.0582576989       -0.5138094238       -2.2889506492
 H        -8.3030521284        1.3411111512        1.0143937798
 H        -6.4761137012        1.6220020574        0.7062650512
 H        -7.0961291867        0.0584009143        1.0558801936
 H       -10.3797602247        3.1214138467       -3.6325679375
 H       -11.9238309947        3.8333648494       -3.8375769537
 H       -11.7832187519        2.3045867793       -3.0957836880
 H       -10.9289940719        5.9643938461       -1.0296828361
 H       -12.3208994493        5.7967210533       -2.2465918036
 H       -10.5825291897        5.7506772172       -2.7075799128
 H       -11.8090030515        1.6983785524        5.1668018905
 H       -11.7068456618        3.1690478519        6.0502429831
 H       -10.6251685578        2.7615962314        4.7401434674
 H       -14.2557033399        1.8200441140        4.3478916699
 H       -14.6929818553        3.5293325722        3.7984400611
 H       -14.1824204243        3.1545928290        5.5122600320
 H       -11.0879759017       10.7654216045        2.8234489147
 H       -10.8974307386        9.4290369869        3.8540697330
 H       -12.4622497262        9.6614277685        3.0978130558
 H       -12.7451674723        9.3072053340        0.6432157128
 H       -11.5134892731        8.0929384826        0.0005794005
 H       -11.2897811065        9.8368908154       -0.1796512442
 H        -5.1943463017        9.3307739821       -3.6807557054
 H        -5.8097706626        7.7114970384       -3.4807111404
 H        -4.1977177790        8.1402239443       -3.1198129316
 H        -3.8725943147        7.7000784020       -0.5798979863
 H        -4.1234009193        9.3344661634        0.1524814087
 H        -3.3631059676        9.2188115530       -1.4219591635
 Na      -11.2148718529        0.8584937090        0.0031888787
