117

 C        -5.2672079175       11.5088804197       -1.8192034386
 C        -6.1349035036       10.2005952382       -1.5855873596
 O        -7.3376709152       10.2337069834       -1.5109927265
 C        -5.4550154584        8.7621352153       -1.5435415204
 C        -6.5534816387        7.7080182594       -1.0134268277
 O        -6.7421485832        6.6996857652       -1.6605882775
 C        -7.3093633619        7.8456237598        0.3423862268
 C        -8.8751101879        8.1428078406        0.2943079296
 C        -9.3169176421        8.9444574268        1.5519262376
 O        -8.5092558454        9.5308252113        2.2597074030
 C       -10.8781768841        8.8807691455        1.7958789107
 C       -11.0442726176        7.4402559707        2.3271332152
 O       -10.9016494682        6.4806766807        1.5480532819
 C       -11.2712823325        7.1968051948        3.8217293553
 C       -11.2056390253        5.6990311799        4.2645774151
 C       -12.4985701527        4.9372543960        4.0813533832
 O       -13.5544958501        5.4780291746        3.8707442036
 C       -12.5822697089        3.3329858134        4.0536079913
 C       -12.4252307723        2.8185590572        2.6328689038
 O       -11.5626664621        1.9843320038        2.3539872229
 C       -13.3637026593        3.4591016416        1.5914472494
 C       -12.6199602565        4.2896376164        0.4801148220
 C       -12.3544750282        3.5006346160       -0.8226663802
 O       -12.9837638480        2.5153980415       -1.1034753860
 C       -11.2036595812        4.0263459806       -1.7750003255
 C        -9.8560346536        3.6305145221       -1.0873347475
 O        -9.9053984050        2.6575630255       -0.2687495496
 C        -8.5329043904        4.3323182881       -1.3744170818
 C        -7.2892886651        3.3711638304       -1.2826577211
 C        -7.6729202100        1.9175772585       -1.8413092865
 O        -8.0405917544        1.8106710579       -2.9588230521
 C        -7.3538440944        0.5739784538       -0.9018129881
 C        -8.5485738405       -0.4056900115       -1.2111358839
 O        -9.5655969828       -0.5806796313       -0.5483345667
 C        -8.3493440975       -1.4719910939       -2.4218071545
 C        -9.6231855436       -1.6864173883       -3.1914109929
 C       -10.4292795747       -2.9916967396       -2.5907678747
 O        -9.8434292863       -3.9234159246       -2.0994422154
 C       -12.0838875365       -2.8674973393       -2.4345145795
 C       -12.2406227005       -2.1233343015       -1.0593195660
 O       -12.2934261782       -0.8782121779       -1.0706491265
 C       -12.2344034176       -2.9137480825        0.2147334398
 C       -12.6441416776       -2.0156097483       -3.5130356756
 C       -12.6032024516       -4.3255171977       -2.3824675298
 C        -5.9985093400        0.0020909144       -1.3475793819
 C        -7.4061595711        0.9664857534        0.5886837397
 C       -11.3684648778        3.1515432693       -3.0409333317
 C       -11.2768825725        5.5331106679       -2.0840817199
 C       -11.5014827989        2.5760623882        4.9326882447
 C       -14.0171537708        2.9737982309        4.4739918418
 C       -11.4716992514        9.9092273455        2.8661195062
 C       -11.6552700606        9.1437541161        0.4552836732
 C        -5.1915980557        8.3590496576       -3.0787988283
 C        -4.1493676822        8.7159175229       -0.6801194221
 H        -4.2671458854       11.3360250679       -1.5435888619
 H        -5.6817034226       12.3881346169       -1.4038410916
 H        -5.2094852250       11.7263070330       -2.9243468168
 H        -6.8222162327        8.5789488316        0.9462542757
 H        -7.1803767996        6.9888175228        0.9864341990
 H        -9.4702814814        7.2386538032        0.2009149844
 H        -9.0873970025        8.8219346911       -0.4929038424
 H       -12.3184865616        7.5875644126        4.1204389515
 H       -10.4798395333        7.7573933769        4.3327621125
 H       -11.0317657098        5.7596248356        5.3347829240
 H       -10.2616854642        5.2346112546        3.8460074864
 H       -14.0863044493        4.0495930709        2.0881320942
 H       -14.0189419282        2.7560023074        0.9995815390
 H       -11.6377256325        4.6892480816        0.7516929550
 H       -13.2368353005        5.1417588337        0.1557891275
 H        -8.4623993638        5.0817821749       -0.5395767116
 H        -8.6702051915        4.8595142364       -2.2783356378
 H        -6.8529568437        3.3276642078       -0.2747990036
 H        -6.4950724772        3.7710249991       -1.9558659737
 H        -8.1367248422       -2.4456465849       -2.0035234705
 H        -7.4459624857       -1.1634395897       -2.9436786647
 H        -9.3335953164       -1.9983317179       -4.2035546350
 H       -10.2089462335       -0.7868552064       -3.1383084078
 H       -11.2221188151       -3.4132184768        0.2223787030
 H       -13.0090389241       -3.7086742451        0.2678557937
 H       -12.3581565023       -2.2094841769        1.1128758344
 H       -12.5695585921       -2.4250206030       -4.5457407581
 H       -12.3437649435       -0.9928580455       -3.4267290016
 H       -13.7952371040       -1.9776829753       -3.3206579766
 H       -13.7135852454       -4.3328285579       -2.3304947270
 H       -12.1929617916       -4.8509673851       -1.5593697171
 H       -12.2243993305       -4.7718647157       -3.2698583417
 H        -5.8807444578       -1.0210181566       -1.1315141885
 H        -5.1821738772        0.5934912117       -1.0007484147
 H        -5.8862294304        0.1221221061       -2.4698800849
 H        -8.3967406883        1.3325489002        0.8086356406
 H        -6.5906043450        1.6778969443        0.7692284132
 H        -7.2152996398        0.0773934332        1.2421641042
 H       -10.5265365218        3.0368750586       -3.7273606772
 H       -12.2177501255        3.5842073858       -3.6478253347
 H       -11.7480521086        2.1741653125       -2.8077751695
 H       -11.1417968631        6.2506414029       -1.1887758401
 H       -12.1447751688        5.6623369253       -2.6442967224
 H       -10.4184399990        5.7299693476       -2.7499182803
 H       -11.7489600089        1.5454301546        4.9426444236
 H       -11.4459828242        2.8591465422        5.9273913853
 H       -10.5301620361        2.5778676644        4.4363622498
 H       -14.1289722308        1.8952806268        4.3344740691
 H       -14.5922923372        3.5039747658        3.7460632630
 H       -14.2273832621        3.2494546972        5.5120694594
 H       -11.6734190860       10.8899511745        2.4882096634
 H       -10.7204149256       10.0135943558        3.6781309393
 H       -12.3156418462        9.5313083175        3.2762330200
 H       -12.7024494820        9.2107869992        0.7126769387
 H       -11.4548668485        8.4396048985       -0.3990895492
 H       -11.4228554086       10.1710979818        0.1624327124
 H        -5.3973517837        9.1815057258       -3.7514239560
 H        -5.8235383148        7.5398338821       -3.3810289492
 H        -4.1442280106        8.1012186652       -3.3132775240
 H        -3.7517992502        7.7445062976       -0.6020607776
 H        -4.2800584904        9.2223789824        0.3037645935
 H        -3.4868414069        9.3881337964       -1.1677491992
 Na      -11.2751184653        0.9371278522        0.2804233132
