117

 C        -5.1681956694       11.5184881185       -1.7728306459
 C        -6.0481540816       10.2652035444       -1.6584242654
 O        -7.2376523283       10.4361604064       -1.6131019706
 C        -5.4609723912        8.8355031021       -1.5781922613
 C        -6.5734727273        7.7401524282       -1.0657304536
 O        -6.7093701748        6.6733886638       -1.6377756715
 C        -7.2311956671        7.9814123683        0.2815188475
 C        -8.7807363969        8.1566946726        0.2281242678
 C        -9.3168506960        8.9523158089        1.4679811962
 O        -8.5926996443        9.5125783232        2.2358658300
 C       -10.8751511312        8.8871642031        1.8017109424
 C       -11.0823406333        7.4488344914        2.2670362101
 O       -10.9906680908        6.5224097036        1.4344376189
 C       -11.2751678579        7.1551432964        3.8154977880
 C       -11.1773773042        5.6494086449        4.2256639119
 C       -12.4843627671        4.9120130740        4.0117835551
 O       -13.4989428519        5.4479458675        3.6522210542
 C       -12.5723516238        3.3248841808        4.0135082570
 C       -12.4031398878        2.8689565884        2.5405836879
 O       -11.6335054407        1.9847449989        2.3483871674
 C       -13.3318732371        3.4220414998        1.5209620644
 C       -12.5702542527        4.3016249776        0.5015035129
 C       -12.3381577553        3.5312880378       -0.7598931234
 O       -12.8161800715        2.4490541044       -0.9682348529
 C       -11.2437964355        4.0179009979       -1.8169554237
 C        -9.8967849522        3.5647821684       -1.0066397658
 O        -9.9167343862        2.6131620633       -0.2870913682
 C        -8.5217961845        4.2015836261       -1.2923703648
 C        -7.4313635344        3.1681595253       -1.2213646502
 C        -7.7496424770        1.8153896520       -1.7570004298
 O        -8.1659771022        1.6273051872       -2.8878882993
 C        -7.4279357504        0.5765419940       -0.8946314445
 C        -8.5407000646       -0.4454362430       -1.1245069879
 O        -9.6011906903       -0.4217201423       -0.4966336898
 C        -8.3864723910       -1.4136623685       -2.4036940965
 C        -9.7325167923       -1.7458865343       -2.9547581878
 C       -10.4357536264       -2.9544131655       -2.4493894291
 O        -9.7949132837       -3.9096068909       -2.1036057362
 C       -12.0233650382       -2.8775094990       -2.4339821604
 C       -12.1946523547       -2.0470794196       -1.0898751458
 O       -12.3902678938       -0.8522104194       -1.1530807778
 C       -12.1840136800       -2.7863828681        0.2427949785
 C       -12.6474360781       -2.1211252873       -3.5957536491
 C       -12.7328378783       -4.2712997946       -2.4656867898
 C        -6.0107623949        0.1314097839       -1.3337208499
 C        -7.4424390342        0.8591488849        0.6082335049
 C       -11.2628001893        3.1400263387       -3.0762987265
 C       -11.2666254549        5.5016701655       -2.2052733519
 C       -11.4159648409        2.5455778273        4.8596184568
 C       -13.9599212049        2.9081585468        4.6372831177
 C       -11.3412620895       10.0936127071        2.7626006358
 C       -11.6219969658        9.1406134002        0.4952934128
 C        -5.1106231739        8.3526133364       -2.9854920080
 C        -4.3079830585        8.6906282651       -0.6486716278
 H        -4.1509948484       11.4912643351       -1.4228654461
 H        -5.7885218463       12.3647851233       -1.3950696833
 H        -5.1020441499       11.7736816656       -2.8122195272
 H        -6.7263491105        8.8234114113        0.7954201521
 H        -7.0087699485        7.2163763508        1.0108448274
 H        -9.2810792812        7.1949178314        0.1937993338
 H        -8.9896476144        8.7604329564       -0.6554015768
 H       -12.3347502237        7.3916061101        4.1160624030
 H       -10.5543561510        7.7592878281        4.3717024457
 H       -10.8067248522        5.6452969780        5.2529402874
 H       -10.3674995109        5.1076588511        3.6329442990
 H       -14.0973054406        3.9816990528        2.0764701906
 H       -13.9412788827        2.6461449492        0.9425636431
 H       -11.5159691310        4.5330208695        0.8667919264
 H       -13.0382370224        5.2632042235        0.2293433472
 H        -8.3303358206        4.9977187349       -0.5175154600
 H        -8.5937210136        4.7046959863       -2.2288501891
 H        -7.0224426662        3.0260771850       -0.1869144995
 H        -6.6215339603        3.5943283964       -1.8227670338
 H        -7.8397167379       -2.3579366194       -2.2544840160
 H        -7.7968271005       -0.7812620735       -3.0183101387
 H        -9.6031179411       -2.0224734528       -3.9640470759
 H       -10.3979284924       -0.8406673764       -2.8227274436
 H       -11.1628795564       -3.2010105983        0.4014848190
 H       -12.8660363644       -3.6786060031        0.2421199154
 H       -12.4996649196       -2.0944882342        1.0623920881
 H       -12.4706055360       -2.7372916086       -4.5191797529
 H       -12.4290568792       -1.0410942881       -3.7088016456
 H       -13.7015494490       -2.1736069584       -3.5200975328
 H       -13.7844010839       -4.0238267802       -2.3992522241
 H       -12.4468477399       -4.9057864321       -1.6084693140
 H       -12.5311788516       -4.7406536796       -3.4536373297
 H        -5.8277601809       -0.9660831946       -1.3960328545
 H        -5.3159574277        0.5377758891       -0.6553775000
 H        -5.6573344474        0.6101795236       -2.2254069552
 H        -8.3987238783        1.2962037265        0.8742974893
 H        -6.5771298694        1.4551344134        0.8813975214
 H        -7.3577486682       -0.1126577727        1.1300895762
 H       -10.4808614535        3.4474922011       -3.7985691708
 H       -12.2266680035        3.1806994426       -3.5871624344
 H       -11.1580379246        2.0053335834       -2.8902216420
 H       -11.3299714997        6.1342540931       -1.2917805468
 H       -12.1580456965        5.6020401802       -2.8479495671
 H       -10.3749085144        5.8266823439       -2.7497088810
 H       -11.5561796735        1.4726485934        4.8618210485
 H       -11.4557853014        2.8270497531        5.9346680550
 H       -10.4348896441        2.7245490662        4.4172170489
 H       -13.9846047178        1.8486090571        4.5435476531
 H       -14.7029956973        3.3920027158        4.0605374048
 H       -13.9756912996        3.1852833840        5.7166358187
 H       -11.7622249839       10.9230390829        2.1373878461
 H       -10.5467548861       10.5274822567        3.2993234922
 H       -12.1544070088        9.8115978056        3.4267460631
 H       -12.7004439546        9.0193053443        0.6011991564
 H       -11.2564840243        8.5127169631       -0.3497326594
 H       -11.4561878254       10.1855339084        0.2742762169
 H        -5.3807364002        9.1191327642       -3.7356796960
 H        -5.6495929153        7.4397317569       -3.2644558640
 H        -4.0111335588        8.1925144379       -3.1631841909
 H        -3.8615076313        7.6848444063       -0.7414891195
 H        -4.6520220974        8.9110693840        0.3095272545
 H        -3.6293218447        9.4739027861       -0.8340025580
 Na      -11.3972552543        0.9284746670        0.4673822049
