117

 C       -10.8222463235       -0.2343922252        9.0573158738
 C        -9.3319413526       -0.0673499815        9.6439168582
 O        -9.2332290578        0.6281381070       10.6301520921
 C        -8.1138250135       -0.7550272453        8.9073444863
 C        -8.2462537741       -0.9002488546        7.3381884461
 O        -9.1420965819       -1.5814481186        6.9041007191
 C        -7.2806099646       -0.1646422076        6.3831541181
 C        -7.6599333088       -0.2100921313        4.9449092537
 C        -6.5541706984        0.0184601453        3.9104374277
 O        -5.3967866582       -0.3507774521        4.0915631495
 C        -6.9869869182        0.4474833445        2.4670056419
 C        -7.3066956116        1.9242536815        2.4394413803
 O        -8.0743560075        2.2881894012        3.3707446904
 C        -6.8505816175        2.9692312943        1.3551253734
 C        -7.5284243354        4.3900594190        1.5939429125
 C        -8.8897778346        4.6764642472        1.0202637373
 O        -9.1215444355        4.5387147831       -0.1693934507
 C        -9.9516045772        5.4398845832        1.8935181880
 C       -11.2637021877        5.2306695743        1.0618747826
 O       -11.6008439278        6.1390677341        0.3004367735
 C       -12.0857967606        3.9943999197        1.1087638034
 C       -12.8606172605        3.7240390741       -0.1916596055
 C       -12.5039202787        2.3969105157       -0.9684395134
 O       -11.8707013573        1.5196478577       -0.3894748782
 C       -12.8123521073        2.3486790514       -2.4346869796
 C       -11.6657892062        3.0194330056       -3.4019323224
 O       -11.0397052004        3.9417586429       -2.9936388066
 C       -11.3241678954        2.4708889633       -4.8390763776
 C       -10.6458758944        3.4156502530       -5.7353502521
 C       -11.4778544803        3.9989291336       -6.8432923608
 O       -12.6995327970        3.7525490250       -6.9460542050
 C       -10.9455497386        5.2870476036       -7.6826625669
 C       -10.5149346621        6.4071800177       -6.6652685637
 O        -9.4683447487        6.3559156871       -6.0248828550
 C       -11.4167418820        7.6720111492       -6.3642516409
 C       -10.9827949201        8.6843863902       -5.3123504874
 C       -10.7331817101        8.0908834870       -3.9160183462
 O       -11.3313437192        7.2248936203       -3.3944356590
 C        -9.5372757549        8.8257942648       -3.0640169001
 C        -8.3478180213        7.7631638885       -3.2472037929
 O        -8.5202949297        6.6964811997       -2.6898211813
 C        -7.1627171515        7.9214590846       -4.2198004036
 C        -9.3030145733       10.2356069104       -3.4977022391
 C       -10.0242207678        8.8975281931       -1.5168144511
 C        -9.6193552535        4.8321897577       -8.4086108769
 C       -12.0665025440        5.7698517109       -8.6316572406
 C       -12.6582891811        0.8092403556       -2.6619532396
 C       -14.2408969460        2.8277422342       -2.8898276682
 C        -9.9903570823        4.8463942267        3.3065041516
 C        -9.5898988237        6.9670146770        1.8064114664
 C        -5.9395809290       -0.1915790434        1.5246258942
 C        -8.3249969260       -0.2692994971        2.1061095399
 C        -6.7123397534       -0.0505274335        9.4002580961
 C        -8.1499326269       -2.2033450443        9.4220398367
 H       -11.2277897581       -1.2571586139        8.9029950720
 H       -10.9586041495        0.3400066505        8.0890983160
 H       -11.3146339153        0.3421975708        9.8395143685
 H        -6.3018198583       -0.6096779122        6.4953140873
 H        -7.3593903666        0.9180868692        6.7659049677
 H        -8.5235098162        0.3748005109        4.7026690167
 H        -8.0302867632       -1.2228043247        4.7458695532
 H        -7.0071005137        2.6232093692        0.3489950848
 H        -5.8000448544        3.1443871600        1.4368884172
 H        -6.9300011686        5.2381106376        1.2293956880
 H        -7.5747649247        4.4874536823        2.6809890929
 H       -12.8444747720        4.1960159947        1.9682803430
 H       -11.4200058427        3.1922479709        1.3066210760
 H       -12.8255606438        4.4948120006       -0.8720313794
 H       -13.8726873386        3.5005405285        0.1224723973
 H       -12.2225137244        1.9187290437       -5.2348981401
 H       -10.5313329774        1.6637783107       -4.6108109079
 H        -9.6862316940        3.0131481554       -6.1654703120
 H       -10.2518968295        4.3082329387       -5.0979564069
 H       -12.3582563834        7.1763442230       -6.0515448772
 H       -11.6475807712        8.2527167202       -7.2880004173
 H       -11.6816438626        9.5949715989       -5.4322386636
 H       -10.0058012859        9.2053673518       -5.4706976404
 H        -6.1773956611        7.8705644835       -3.6512119866
 H        -7.2162891637        8.8721165708       -4.8066074605
 H        -7.2505212709        6.9562188405       -4.8297305232
 H       -10.1795528723       10.8318670107       -3.4568313118
 H        -8.8260268270       10.3564606380       -4.5467778215
 H        -8.5870092734       10.7868483415       -2.8792124554
 H        -9.9681115580        9.8461737770       -1.0754346437
 H        -9.4462423843        8.2346492459       -0.9274966341
 H       -11.0033743139        8.3454336294       -1.5488472885
 H        -9.5586594769        3.8543870787       -8.7592757427
 H        -8.7922996625        4.9796539155       -7.6447104098
 H        -9.2780512736        5.5691500120       -9.1735721142
 H       -12.4025076176        4.9015876308       -9.1406328078
 H       -11.7395631462        6.5418463848       -9.3412631432
 H       -12.9371345883        6.1781777855       -8.1166745219
 H       -13.1649978715        0.1311308109       -1.9474148746
 H       -11.6038022254        0.6547664406       -2.8110656742
 H       -13.1855509599        0.5731044042       -3.6050356677
 H       -14.5426013259        3.7218243956       -2.2666670982
 H       -15.0258384954        2.1250871357       -2.7196959236
 H       -14.1551085615        3.1197666764       -3.8703668914
 H       -10.7722976737        5.1670722553        3.9569013320
 H        -9.0684429069        5.0596830650        3.9778220301
 H       -10.0728647437        3.8302183403        3.2377921675
 H        -9.7591009674        7.5227026802        0.8486641508
 H        -8.5289389395        7.1785465972        2.1196309243
 H       -10.2591037645        7.4937624530        2.5085580147
 H        -6.1330294561       -1.2897531532        1.5503470955
 H        -4.9375492184        0.0086659560        1.9253416301
 H        -5.9429609402        0.1055893763        0.4859468583
 H        -9.1108492911        0.3828097522        2.4349274865
 H        -8.3273793097       -1.2536301546        2.5998079078
 H        -8.3839414127       -0.3449231434        1.0240082755
 H        -6.5795312447        0.8542586324        8.8995207048
 H        -5.9361052196       -0.7390294311        9.5019476496
 H        -7.0084529047        0.1882365969       10.4547886889
 H        -9.1271931695       -2.5086863367        9.1710419891
 H        -8.0642127330       -2.2057334945       10.5045732394
 H        -7.3978585487       -2.8859606600        8.9847391481
 Na      -10.5369223054        5.6713569018       -1.7127363554
