117

 C        -4.9280176395       11.3727403832       -1.7415150880
 C        -5.9979287979       10.3396893363       -1.6719686926
 O        -7.1930765602       10.5470592719       -1.7695762303
 C        -5.4997540009        8.8920382813       -1.6061332915
 C        -6.5481451582        7.9001901274       -1.0758220239
 O        -6.8540890825        6.7949695519       -1.4912035530
 C        -7.1827186285        8.4180840097        0.1860532179
 C        -8.7061037388        8.4288617996        0.0905453980
 C        -9.2629977810        9.0172785409        1.3795608964
 O        -8.5027769260        9.4593550501        2.2467679589
 C       -10.7965116333        8.9188009750        1.6746243668
 C       -11.0247195890        7.4426188183        2.2529852446
 O       -11.1277593370        6.5586350278        1.4109979920
 C       -11.2134600466        7.2430121929        3.7097274647
 C       -11.1042923709        5.7232936509        3.9355082604
 C       -12.4852142867        4.9523498576        3.8124044453
 O       -13.4841327850        5.4907198438        3.3761224631
 C       -12.4745053333        3.4093658440        4.0582268348
 C       -12.5077123507        2.7959563102        2.5747064234
 O       -11.7411166157        1.8398256182        2.3144244178
 C       -13.4820237633        3.4173061494        1.5229712533
 C       -12.6481973177        4.1375598342        0.4767249801
 C       -12.2339583933        3.3311563272       -0.8046286858
 O       -12.6953101803        2.1972218239       -0.9457936999
 C       -11.2069922453        3.8723621640       -1.7401119606
 C        -9.8913173507        3.5368489461       -1.0250208803
 O        -9.8749196332        2.5570135185       -0.2344175976
 C        -8.5607826961        4.1092808102       -1.5474977373
 C        -7.4105710153        3.1888414091       -1.1302591212
 C        -7.8124182350        1.7294204238       -1.5050031415
 O        -8.4071412566        1.5892106991       -2.5402214698
 C        -7.4066200970        0.5106795905       -0.6927605296
 C        -8.6316447189       -0.5018943082       -1.0850423403
 O        -9.6394126903       -0.4786369528       -0.4331806124
 C        -8.4598026130       -1.4108290823       -2.3252261763
 C        -9.8894632646       -1.6119306265       -2.8976952419
 C       -10.6259244967       -2.8863700620       -2.4055559348
 O       -10.0142869618       -3.8508451747       -2.0167320455
 C       -12.1383181665       -2.8813989425       -2.3929298779
 C       -12.3138997390       -1.9646995602       -1.1578647706
 O       -12.4806811818       -0.7441307347       -1.2759830028
 C       -12.1130706823       -2.5744610622        0.2339474832
 C       -12.5385927382       -2.1491046793       -3.6991515263
 C       -12.6880960907       -4.2765279147       -2.1618267103
 C        -6.0018874293        0.0350474226       -1.1813574802
 C        -7.3977380182        0.6804547000        0.7855273265
 C       -11.1115954489        3.0431809499       -3.1511041244
 C       -11.2878961002        5.4013353511       -2.0169175321
 C       -11.2615030918        2.9478463283        4.8162459528
 C       -13.8088359589        2.8765834228        4.8346421202
 C       -11.1343168642       10.0467316352        2.6990269476
 C       -11.6425553081        9.0063897638        0.3883280541
 C        -4.8756601014        8.5583052443       -2.9620784983
 C        -4.3450100377        8.6634677913       -0.5561447376
 H        -4.1585642565       11.0611656161       -1.0300521838
 H        -5.2874226670       12.3566415317       -1.5636076853
 H        -4.4002162396       11.4222595440       -2.7421540486
 H        -6.8043419263        9.3838695747        0.4687639518
 H        -6.8252932104        7.8508589633        1.0854290290
 H        -9.2084893382        7.4331389157       -0.0120156784
 H        -8.8382198421        9.0942961330       -0.7889526831
 H       -12.2042433244        7.4955837966        3.9974255421
 H       -10.4256852769        7.8124328116        4.2001563168
 H       -10.5244014219        5.5873864470        4.8504881360
 H       -10.4826722134        5.3245227292        3.1806646288
 H       -14.1464007841        4.1474356123        1.9893566550
 H       -14.1479220047        2.6628334507        1.1673300911
 H       -11.8591067564        4.5620754130        1.0431052975
 H       -13.2283177722        4.9859576321        0.0871399093
 H        -8.4918994456        5.1084821400       -1.1550622075
 H        -8.7093156770        4.2304280432       -2.6545567387
 H        -7.2105473326        3.2350159103       -0.0890347250
 H        -6.5017245632        3.4849740730       -1.6604615010
 H        -7.9055468768       -2.2869328635       -1.9587117305
 H        -7.7806265767       -0.8021480760       -3.0048581234
 H        -9.7104238186       -1.7816059977       -4.0241936446
 H       -10.4458131783       -0.7338205656       -2.7230436222
 H       -11.1286823490       -2.9305095178        0.3797179143
 H       -12.7134354140       -3.4226104292        0.3181587921
 H       -12.4812815042       -1.8851755776        0.9468939489
 H       -12.0632696504       -2.5508880273       -4.5292058316
 H       -12.3489560390       -1.1461534217       -3.5389447470
 H       -13.6079933010       -2.2257491082       -4.0383646545
 H       -13.7403538587       -4.2972711849       -1.7489866482
 H       -11.9791307468       -4.6927557416       -1.4527043374
 H       -12.6821811455       -4.7713127357       -3.1292821046
 H        -6.0064811287       -1.0307508021       -1.1757399161
 H        -5.0817475466        0.3038514057       -0.5962305500
 H        -5.6935802934        0.4775222514       -2.1665823199
 H        -8.3474647338        1.1406525594        1.0009690838
 H        -6.5753592140        1.3015050452        1.1207535526
 H        -7.3463504034       -0.2879708350        1.2378855848
 H       -10.7502237959        3.6633659759       -3.9517369354
 H       -12.0719173406        2.5718965562       -3.4035062919
 H       -10.4994104635        2.2218735323       -3.1267350087
 H       -11.2688265283        6.0145075555       -1.0966320032
 H       -12.1730625961        5.6046253988       -2.5541621196
 H       -10.4160043940        5.6986323898       -2.6109667268
 H       -11.1949016416        1.8244963860        4.8488637618
 H       -11.3939424597        3.2096641261        5.8622137502
 H       -10.3151592269        3.3934917066        4.3956831861
 H       -13.8208628693        1.7628219008        4.8408525516
 H       -14.7007600312        3.3914361193        4.4467390111
 H       -13.6328605209        3.2956217275        5.7942024735
 H       -11.3898327950       10.9542132638        2.1638741474
 H       -10.1946677737       10.3252490391        3.3232771846
 H       -12.0012252066        9.8775774714        3.3271864132
 H       -12.6743058091        9.1879489232        0.6878912794
 H       -11.7134675478        8.0445920253       -0.0937001647
 H       -11.3098030892        9.8030684158       -0.2840712340
 H        -5.4538478335        8.8926618465       -3.8236299907
 H        -4.7039892572        7.4742636807       -3.0877244349
 H        -3.8994139374        9.0224394800       -3.0009380059
 H        -4.1402205111        7.6215545851       -0.6384693946
 H        -4.6946927376        9.0160539040        0.4971913117
 H        -3.4423428108        9.2579895239       -0.8661515800
 Na      -11.6322915853        0.5725834620        0.2279180212
