117

 C        -4.5378921541       11.4837167495       -1.7852945396
 C        -5.6316516709       10.4972132629       -1.9563141668
 O        -6.7935849619       10.7063670199       -2.1208578303
 C        -5.0948202045        8.9055704027       -1.7013313464
 C        -6.4096672827        8.1327240521       -1.1207014115
 O        -7.0522545614        7.2871227884       -1.7099935388
 C        -7.0524873416        8.6187061110        0.3282163149
 C        -8.5322935525        8.9791920885        0.1803897663
 C        -9.2740529737        9.1690766881        1.4969134971
 O        -8.7664111924        9.3183384564        2.5957593291
 C       -10.9197229507        9.0749871044        1.4647974112
 C       -11.0639594472        7.6134900189        1.9734459430
 O       -10.9384051252        6.6713237642        1.1762855968
 C       -11.1225514488        7.3656725221        3.5425506576
 C       -11.0191615943        5.8622009596        3.8769185188
 C       -12.2769007232        5.0800664319        3.5594620547
 O       -13.2550944783        5.6530160435        3.2002704473
 C       -12.3006270483        3.4356453603        3.7799140634
 C       -12.6334789576        2.6196867983        2.4702463947
 O       -11.9230467787        1.6354777310        2.2592313864
 C       -13.7774473000        2.9483302158        1.4375224059
 C       -13.1624755571        3.9231089668        0.3934643938
 C       -12.5518587302        3.1836068707       -0.8414393952
 O       -12.9346750052        2.0741015423       -1.1356876205
 C       -11.3705024354        3.8657469858       -1.5400972281
 C       -10.0506054476        3.3730880108       -0.8154018031
 O       -10.0407939890        2.4994469340        0.0590077826
 C        -8.6314805013        3.8173628625       -1.2451829291
 C        -7.5021491914        2.8432690464       -0.9979464969
 C        -7.7803208945        1.4131760272       -1.4944169170
 O        -8.1670567230        1.2482851869       -2.6190520640
 C        -7.3827287782        0.2379163609       -0.4838689001
 C        -8.5996859633       -0.7702170302       -0.8590610123
 O        -9.5942986660       -0.8485463330       -0.1827623989
 C        -8.5512343083       -1.5100779273       -2.2539670815
 C        -9.9537049877       -1.6412514304       -2.8694758312
 C       -10.6927063107       -2.8869407229       -2.3081826913
 O       -10.0473983381       -3.7690557602       -1.8328022983
 C       -12.2671468491       -2.8769390190       -2.2523462697
 C       -12.6085436198       -1.9116624544       -1.1462296488
 O       -12.7314648307       -0.7016548158       -1.3781850199
 C       -12.4258159836       -2.4121427760        0.2762480651
 C       -12.7916866399       -2.4602857218       -3.6152792944
 C       -12.5964327750       -4.4009046028       -1.8866257343
 C        -5.9711871240       -0.1943532621       -0.7560363490
 C        -7.5758879600        0.5921089270        1.0415321922
 C       -11.2315507026        3.2620883081       -2.9620910622
 C       -11.3473697550        5.4331987464       -1.6312740592
 C       -10.9722981273        2.7946087393        4.4134352538
 C       -13.5705261147        3.2175069054        4.6955690203
 C       -11.4700743453       10.1823896468        2.4553909811
 C       -11.7432781179        9.3415156532        0.1235367224
 C        -4.5905399822        8.2573935384       -3.0323390968
 C        -3.9403190135        8.9458738040       -0.6597692337
 H        -4.6896791723       11.8996067089       -0.8081214457
 H        -4.6152580045       12.3149170577       -2.4753863099
 H        -3.4976518475       11.0186357094       -1.8246163272
 H        -6.4528243573        9.4740383420        0.6446295255
 H        -7.0133377050        7.7616541137        1.0884344007
 H        -9.0305350808        8.1700210478       -0.4234423189
 H        -8.6366831123        9.9245058541       -0.4010490893
 H       -12.1255850866        7.6359055201        3.7943253010
 H       -10.3653585555        7.8744762919        4.1209337198
 H       -10.8096861750        5.7934020240        4.9747406119
 H       -10.0857653788        5.4847204704        3.4902585101
 H       -14.6303482649        3.4605501067        1.9109254465
 H       -14.0604877851        1.9972698969        0.8954307466
 H       -12.4301468768        4.5804313271        0.8715089178
 H       -14.0016975987        4.6102747604        0.0869485079
 H        -8.4091136196        4.7522806839       -0.6918254748
 H        -8.6758606687        4.1756520331       -2.2907950092
 H        -7.1644068425        2.8601813805        0.0252463342
 H        -6.6950305591        3.2457609000       -1.6333756810
 H        -8.0947423690       -2.4794529533       -2.0733612045
 H        -7.8807855230       -0.8662355531       -2.8817811667
 H        -9.7583870467       -1.8021230944       -3.9974987494
 H       -10.5801461667       -0.7849592311       -2.8629043101
 H       -11.5158862191       -3.0265589643        0.2931979468
 H       -13.2261957650       -3.0552796365        0.6356635912
 H       -12.4347091264       -1.5097276573        0.9210082108
 H       -12.5017376882       -3.2045478561       -4.3431272589
 H       -12.4186099806       -1.5389321832       -3.9406022006
 H       -13.9369874418       -2.3914815439       -3.6591873275
 H       -13.7289509671       -4.4895006906       -1.9709325045
 H       -12.1855139377       -4.6839701056       -0.9154186664
 H       -12.2284017964       -5.0233501050       -2.6980215247
 H        -5.5946041402       -1.0186868802       -0.2043551242
 H        -5.1813648852        0.5276066054       -0.5544531324
 H        -5.9716717752       -0.5078993988       -1.8721095345
 H        -8.4856783825        1.1432119032        1.1399580031
 H        -6.7567711815        1.2529781598        1.3300422757
 H        -7.5433992974       -0.3309980721        1.6194508185
 H       -10.1632292560        3.2608965111       -3.2646537441
 H       -11.8519995262        3.7510465186       -3.7901945822
 H       -11.5215056168        2.2070112388       -3.0083803881
 H       -11.2453126055        6.0348635487       -0.6732974246
 H       -12.1888985179        5.7982554204       -2.0962551218
 H       -10.5611574661        5.6633690631       -2.3612474182
 H       -11.2782775395        1.7303116100        4.4055010366
 H       -10.7142912355        3.1337167998        5.4116197904
 H       -10.0582644845        2.9652974695        3.7456169585
 H       -13.6517805526        2.1448073256        4.7153442525
 H       -14.4012128698        3.6563383088        4.1945113728
 H       -13.4140313429        3.6996356975        5.6365801054
 H       -11.4021113961       11.1655785807        1.9181779376
 H       -10.7400750096       10.1692886881        3.3450456177
 H       -12.4917916538       10.1254829285        2.7686514685
 H       -12.7190380316        8.9403438147        0.3022813043
 H       -11.4632697385        8.8582837180       -0.8258827218
 H       -11.7804294851       10.4156928275       -0.0272592437
 H        -5.3980358386        7.8553708110       -3.6594072674
 H        -3.8463709308        7.4531867097       -2.8381356326
 H        -3.9991911143        9.0324538673       -3.5732702193
 H        -3.6616029292        7.9502438256       -0.5296374488
 H        -4.4086212497        9.3229067680        0.2738366559
 H        -3.1058131683        9.4742194922       -1.0659818372
 Na      -11.2776131378        0.8374007245        0.1898309444
