117

 C        -4.4446190626       11.5639140081       -1.9282207520
 C        -5.5168041124       10.4089256429       -1.9352894322
 O        -6.6226554275       10.7345080614       -2.2932070605
 C        -5.1785650174        8.9479997102       -1.5913758480
 C        -6.4709764335        8.2556694072       -1.0819264937
 O        -7.0816002144        7.3905033087       -1.6723357604
 C        -6.9191566750        8.6944435387        0.3266737016
 C        -8.4276006344        9.0964908447        0.2060632210
 C        -9.2149228989        9.2494596827        1.5047829663
 O        -8.6902114995        9.3035111928        2.5599348219
 C       -10.8647298356        9.1348359814        1.4516516042
 C       -11.1185883292        7.6871098935        1.9520861913
 O       -10.9999401558        6.7393331499        1.1655057565
 C       -11.1538008758        7.3414799616        3.4636226021
 C       -10.9493239526        5.7725786331        3.6665052249
 C       -12.2002313081        4.9783253452        3.4374117254
 O       -13.2192951132        5.4520278727        2.9655210998
 C       -12.3461677075        3.4118858430        3.7115466827
 C       -12.5692700682        2.6878227455        2.4402688035
 O       -11.9446197966        1.6969905332        2.1712883588
 C       -13.7643018489        3.1046022961        1.5260947479
 C       -13.2888891993        4.0260390817        0.3611517018
 C       -12.5362098752        3.2384412321       -0.7713290320
 O       -12.9008337626        2.1801301820       -1.1136783066
 C       -11.2768949619        3.9095078790       -1.5471174246
 C       -10.0749567292        3.3601745346       -0.7216181430
 O       -10.1827252805        2.5275357298        0.1650026980
 C        -8.6820075590        3.9042023121       -1.2571048808
 C        -7.5838807911        2.8971238035       -0.9380806612
 C        -7.7647766011        1.4560068052       -1.4670043184
 O        -7.9899277091        1.1746852725       -2.6378691810
 C        -7.5522237473        0.1993775762       -0.5378641722
 C        -8.6165759873       -0.7987909263       -0.9061569876
 O        -9.6188472750       -0.9339143038       -0.2081247216
 C        -8.5860877671       -1.6411641205       -2.2362602735
 C       -10.0110629227       -1.6170494791       -2.6910733531
 C       -10.6363531484       -2.9101192498       -2.1921706468
 O        -9.9908851569       -3.8559302666       -1.7664407470
 C       -12.2346204809       -2.9149921771       -2.2350944343
 C       -12.4771115715       -1.8791664469       -1.0304526014
 O       -12.5589885230       -0.6790508011       -1.2583062213
 C       -12.5730776795       -2.4278958876        0.3984979564
 C       -12.6909265111       -2.5038025309       -3.6087856037
 C       -12.7797869376       -4.4239220821       -1.8374734796
 C        -6.1013042372       -0.2505699299       -0.7913992727
 C        -7.7332200169        0.5535826004        0.9754873577
 C       -11.1990236488        3.2939512861       -2.9439169116
 C       -11.3042328104        5.4190163510       -1.6114142147
 C       -11.0571546854        2.9083619753        4.3963802264
 C       -13.4819848751        3.1842723935        4.7299482875
 C       -11.4765883262       10.1994191118        2.3820878528
 C       -11.5819175706        9.1689948275        0.0832560628
 C        -4.6902770600        8.3529917154       -2.9307492569
 C        -4.0374606998        8.8840852362       -0.5639569730
 H        -4.4877635694       12.0375474383       -0.9556453259
 H        -4.9034003854       12.3569446060       -2.5985739777
 H        -3.4221086971       11.3429483587       -2.1905640511
 H        -6.3138967975        9.5968170365        0.5658124101
 H        -6.7755281924        7.8398026044        1.0131388515
 H        -8.9421091604        8.3631910612       -0.4838468992
 H        -8.4700512606       10.0734801999       -0.3292984128
 H       -12.1633695249        7.5582723043        3.8867230641
 H       -10.3744233883        7.8421493921        3.9469372002
 H       -10.5144986510        5.5994283268        4.5950410824
 H       -10.1513397836        5.4087607629        2.9992821576
 H       -14.3962139114        3.6659053339        2.1253882033
 H       -14.2137087941        2.2020473045        1.0822576314
 H       -12.6071399289        4.7349522925        0.8030434190
 H       -14.1095146797        4.6014917783       -0.0190544611
 H        -8.4843373992        4.9312151423       -0.8208619742
 H        -8.7711477848        4.1057877515       -2.2651946073
 H        -7.4470065529        2.7739885558        0.1355574585
 H        -6.6983867719        3.3556108389       -1.3442585723
 H        -8.2819779429       -2.6906620464       -1.9977285705
 H        -7.8552980486       -1.1299562232       -2.8716167865
 H       -10.1556643383       -1.6393634536       -3.7726779314
 H       -10.6529882825       -0.7398648408       -2.4226179313
 H       -11.7394347694       -3.0591895505        0.5480001221
 H       -13.4219815860       -3.0696132424        0.4491391316
 H       -12.7343913632       -1.6666736339        1.1206944476
 H       -12.5974481221       -3.2753186451       -4.3774675974
 H       -12.2279815510       -1.6200595837       -4.0549301970
 H       -13.6928568438       -2.3040688779       -3.4824177593
 H       -13.8485951132       -4.5508679705       -2.0940385930
 H       -12.5021796680       -4.6770050219       -0.7899973961
 H       -12.2346626821       -5.1277538845       -2.5161887192
 H        -5.7443909507       -1.1818830501       -0.1980952864
 H        -5.4284185253        0.4711246365       -0.3749873029
 H        -5.8452296935       -0.4826236147       -1.8354324205
 H        -8.4128624851        1.3537384885        1.0995062894
 H        -6.7701093809        0.8877667447        1.2746387371
 H        -8.0069494169       -0.3411654908        1.5375395231
 H       -10.2360796177        2.9606666957       -3.2762390379
 H       -11.5584411595        3.9731324485       -3.6714875664
 H       -11.8699834879        2.3823072029       -3.0430541065
 H       -11.5145623634        5.8726044450       -0.6500186915
 H       -12.1012198794        5.7658077265       -2.2641385917
 H       -10.4485642508        5.8349721422       -2.0845918384
 H       -11.1261533879        1.8067779300        4.3595205330
 H       -10.9090968920        3.3241324983        5.4449327696
 H       -10.1852519167        3.2854937156        3.7973310966
 H       -13.5923337854        2.1289443303        4.6732713816
 H       -14.3617002135        3.7024246876        4.4373005174
 H       -13.0740606329        3.5421167409        5.7183527410
 H       -11.7606727049       11.1410902023        1.7785212972
 H       -10.7018753758       10.3976714724        3.0537335066
 H       -12.3825534882        9.9283983660        2.9614878029
 H       -12.5654447759        8.7530890179        0.2184990254
 H       -11.1161130715        8.4604892849       -0.6423279128
 H       -11.6195690146       10.1343542119       -0.3901062791
 H        -5.4960199623        8.3560256283       -3.6661934685
 H        -4.2573960710        7.3578882725       -2.8627970530
 H        -3.8551708363        9.0415856602       -3.2711986313
 H        -3.7394091555        7.7782119892       -0.4270674781
 H        -4.4585975825        9.2596115479        0.3419831785
 H        -3.2360539998        9.4602452588       -1.0340997406
 Na      -11.3966945939        0.5910572880        0.1384362905
