117

 C        -4.0381334372       11.4696642718       -2.1964834602
 C        -5.2507526874       10.5556107639       -2.1596416198
 O        -6.3860468587       11.0149544139       -2.3141533797
 C        -4.9999007973        9.0169979278       -1.6907990717
 C        -6.3518839403        8.5038207927       -0.9773242844
 O        -7.0580723428        7.6118687312       -1.3899915714
 C        -6.8359611488        9.3365546252        0.2423045747
 C        -8.3882889300        9.5270357647        0.1570592834
 C        -9.2661867857        9.2888137364        1.4506688206
 O        -8.8243379748        9.3247302392        2.5828283538
 C       -10.8115939506        9.0872997048        1.3055638862
 C       -10.9092721241        7.5576163547        1.7538088434
 O       -11.0995743227        6.6754577643        0.9434220415
 C       -10.8180826438        7.3116624765        3.2671789133
 C       -10.8902162168        5.9113761884        3.8163670969
 C       -12.1676359162        5.2055537152        3.4100345649
 O       -13.1621243729        5.8827737032        3.1328053737
 C       -12.2827815998        3.5454774569        3.6365920354
 C       -12.6704977708        2.7321401505        2.3819025348
 O       -12.1892210020        1.6236749036        2.1822902162
 C       -13.7418613524        3.2105250682        1.3918485335
 C       -13.1610621770        4.0863296897        0.3089298752
 C       -12.4773800553        3.2637017763       -0.8143019296
 O       -12.7971370035        2.1087895170       -1.0022918460
 C       -11.3066176418        3.8291949882       -1.7148367438
 C       -10.0780597657        3.3890153870       -0.8869927991
 O       -10.1272903578        2.5720760090        0.0505213003
 C        -8.6330160620        3.9193770195       -1.3402830754
 C        -7.6437812341        2.9424436854       -0.6474974061
 C        -7.7088471346        1.5501922094       -1.2213284795
 O        -7.7163300902        1.4811462163       -2.4521087980
 C        -7.7383986418        0.1948734100       -0.3677157163
 C        -8.9233540345       -0.7042959383       -0.9181009301
 O        -9.9391008021       -0.8513219620       -0.2335675985
 C        -8.6535107391       -1.5453428921       -2.2790843707
 C        -9.8459619880       -2.4441225579       -2.9156525622
 C       -10.6788666653       -3.3347189114       -2.0311081101
 O       -10.2392548054       -4.3030377206       -1.4442418338
 C       -12.2564723736       -3.2559305619       -2.0716516189
 C       -12.5623592365       -2.1111535367       -0.9301101215
 O       -12.3996643848       -0.9140712910       -1.1288509120
 C       -13.0562399873       -2.6732387615        0.4180576783
 C       -12.9156581936       -2.8197482872       -3.4455957274
 C       -12.8579167942       -4.6296515469       -1.7398010539
 C        -6.3327170330       -0.4909778719       -0.6153544771
 C        -7.8941743711        0.4655890349        1.1978957641
 C       -11.2930141274        3.0435205496       -3.0358511617
 C       -11.4097903986        5.4130460035       -1.9546169338
 C       -10.8861898651        2.8370545926        4.1413100755
 C       -13.5638964119        3.3957343658        4.5979861084
 C       -11.4951946728        9.9745801126        2.3978201989
 C       -11.4513605393        9.3755237913       -0.0878813376
 C        -4.5422494377        8.0552903565       -2.8525721150
 C        -3.8665541405        9.1481373552       -0.5449033608
 H        -3.4037447307       11.3900612531       -1.2856754599
 H        -4.5002640685       12.4848084580       -2.0387483764
 H        -3.4554084723       11.4496912065       -3.0801244777
 H        -6.4369271380       10.3708368073        0.1674720176
 H        -6.6387790811        8.7706339171        1.1529183541
 H        -8.8062436039        8.8239646329       -0.6099226399
 H        -8.6973587775       10.5260619936       -0.2313501851
 H       -11.6555746525        7.8692492024        3.7264784684
 H        -9.8863926043        7.7013635193        3.5198469337
 H       -10.7956413448        5.9407607869        4.8717728795
 H        -9.9260662009        5.4314418637        3.5025589725
 H       -14.4070894010        3.8387824262        1.9681467078
 H       -14.1663087608        2.3037241328        0.8829665070
 H       -12.4862866083        4.7681599498        0.8766148444
 H       -13.9527725285        4.7406960769       -0.0992651965
 H        -8.4486693216        4.9821313085       -0.9680269219
 H        -8.6476422933        4.0001460906       -2.3815678966
 H        -7.8516148757        3.0510031013        0.4342790201
 H        -6.6134576137        3.2598855622       -0.7870126290
 H        -7.8047238240       -2.2106983038       -2.0114616429
 H        -8.2849501169       -0.7751140767       -2.9726816013
 H        -9.4050477423       -3.0933627210       -3.6513652778
 H       -10.5341526682       -1.9207253876       -3.6413693928
 H       -12.3845164380       -3.4741797265        0.8173437835
 H       -14.0771381931       -3.0995476887        0.1573623711
 H       -13.2516109175       -1.9311748069        1.2238531181
 H       -12.4636979252       -3.3258839940       -4.3209359841
 H       -12.8961874992       -1.7217763927       -3.7054650444
 H       -13.9012401068       -3.0617624646       -3.3762662944
 H       -13.7878554287       -4.5449120210       -1.2269605387
 H       -12.0772365275       -5.0442319044       -1.0736262562
 H       -12.7666252840       -5.3168915765       -2.5960206089
 H        -6.3247087916       -1.5950967229       -0.2822802574
 H        -5.5507272953        0.1297778120       -0.1793829196
 H        -6.0478675210       -0.6990219394       -1.6051153620
 H        -8.8995339953        0.8772182304        1.3707338098
 H        -7.1156358046        1.1680383079        1.5067265207
 H        -7.7993827176       -0.4850568269        1.7622941884
 H       -10.3068171143        2.5706737293       -3.2567898385
 H       -11.4609687523        3.6016512655       -3.9380298306
 H       -11.9421550454        2.0933769100       -2.9180971003
 H       -11.1795574642        5.9749004967       -1.1089624834
 H       -12.4662199775        5.7254140157       -2.2332301031
 H       -10.7686030578        5.7933111259       -2.7357742610
 H       -10.9666412641        1.7771571720        4.3663689085
 H       -10.5419640308        3.4400463018        5.0342930381
 H       -10.1919858418        2.9044207553        3.3241039180
 H       -13.7197635221        2.3984162528        4.8825347826
 H       -14.3795505664        3.8298942422        4.0765211781
 H       -13.2163418984        3.9625590283        5.4701164432
 H       -11.0098506861       10.9674709254        2.2660099667
 H       -11.3418086203        9.6688537570        3.3976560997
 H       -12.6398521247       10.0064810142        2.2419726492
 H       -12.5189655919        9.3162528886        0.0869105216
 H       -11.1549344668        8.6592163586       -0.8590317397
 H       -11.3140150111       10.3332973792       -0.5653188549
 H        -5.3211467631        8.0886140234       -3.6208025094
 H        -4.4411255977        7.0430640354       -2.4869749845
 H        -3.6263392407        8.4370312205       -3.3632112768
 H        -3.9510537351        8.1479155851       -0.0737209287
 H        -4.1339147887        9.8856083119        0.1272219897
 H        -2.9213055315        9.4190426798       -0.9719495333
 Na      -11.5640004033        0.7700899721        0.2698670425
