117

 C       -10.6215312629       -0.3202329927        9.0533094824
 C        -9.2657679207        0.0064379384        9.6573333923
 O        -9.0530264226        0.6147902961       10.6704012503
 C        -8.0423654168       -0.7240785672        8.9770836996
 C        -8.2015368783       -0.7218934479        7.4271312430
 O        -9.1157210190       -1.3717082723        6.9240368347
 C        -7.1743216399       -0.0289113348        6.4393793138
 C        -7.6525550017       -0.1589633328        4.9972409761
 C        -6.5439407164        0.0607433654        3.9504901835
 O        -5.3774353502       -0.0919492366        4.2185176169
 C        -7.0413059986        0.4364987548        2.4376665009
 C        -7.3637725341        2.0000498933        2.4789829266
 O        -8.0684609434        2.5204722539        3.3270892558
 C        -6.8777156498        2.9425797744        1.3919811497
 C        -7.4538571756        4.3456052138        1.7234648569
 C        -8.8704471366        4.6466635099        1.0385549521
 O        -9.0464431583        4.3998397683       -0.1177147990
 C       -10.0404541793        5.4164910052        1.8545853244
 C       -11.3085754685        5.2588136506        0.9560728599
 O       -11.6107551985        6.0888847452        0.1072082453
 C       -12.0955742451        3.8843309563        1.2015423725
 C       -13.0279779984        3.7038845439       -0.0748811739
 C       -12.4943064018        2.4005794730       -0.9369781300
 O       -11.8953330678        1.5221680409       -0.3234725318
 C       -12.7786877548        2.2140445278       -2.4701494148
 C       -11.7050632141        3.0029965923       -3.2651257828
 O       -11.2266907812        4.0279484788       -2.8149061764
 C       -11.4494242040        2.5335824982       -4.6728615056
 C       -10.6543166139        3.5217686921       -5.5851194901
 C       -11.5738505395        4.1335373191       -6.7505196155
 O       -12.6870458830        3.7316790793       -6.8933307289
 C       -10.9362034974        5.2900258719       -7.6446177198
 C       -10.4908675197        6.4341251588       -6.6632183067
 O        -9.4069240040        6.3652472975       -6.1123016085
 C       -11.4779743227        7.6368980578       -6.4614930052
 C       -10.9558989619        8.6406125329       -5.4169506506
 C       -10.6615376014        8.1462343857       -4.0023334229
 O       -11.4026700807        7.2695137223       -3.5259493444
 C        -9.5465955071        8.7294750045       -3.1541678194
 C        -8.3240120719        7.6599601712       -3.3825439363
 O        -8.3778318216        6.5953063900       -2.7505668620
 C        -7.2061935346        7.8929603474       -4.3338323310
 C        -9.4246515405       10.2286880292       -3.5839561362
 C        -9.9885162348        8.7305138436       -1.6229290683
 C        -9.6032667401        4.7507495132       -8.3409174405
 C       -12.0003137458        5.6982099621       -8.6433213475
 C       -12.8611988724        0.5792850927       -2.6278335319
 C       -14.1500693405        2.7745085338       -3.0263628091
 C       -10.2265712641        4.7495834092        3.2318819270
 C        -9.6567837199        6.9214259268        1.8832692653
 C        -6.0297991185       -0.2140434581        1.3677564767
 C        -8.4186838983       -0.2458045464        2.1531798995
 C        -6.7319151528       -0.0178764507        9.4165628040
 C        -7.9098441157       -2.2230345485        9.4982396939
 H       -10.6416317453       -1.4000973605        9.1343639058
 H       -10.7309928382       -0.1000772308        7.9213557126
 H       -11.4355584067        0.2062992173        9.6716082610
 H        -6.1741660858       -0.5867125906        6.5965527135
 H        -7.0857203679        1.0298394024        6.6526016702
 H        -8.4940665128        0.4264369345        4.8170857150
 H        -8.0009951940       -1.1243475909        4.8149908709
 H        -7.1897948364        2.6773563613        0.4353772087
 H        -5.8182592598        3.0181890624        1.3206835234
 H        -6.8450498290        5.0580862972        1.2438660111
 H        -7.3765406015        4.5371614421        2.8223606518
 H       -12.6661265367        3.9840606172        2.1702126251
 H       -11.3005940855        3.0553056275        1.1406647397
 H       -12.9422987716        4.6092070515       -0.6794273795
 H       -14.0513580753        3.3779346380        0.1866722758
 H       -12.4795210737        2.4223854047       -5.0668906708
 H       -11.0589893694        1.4751552371       -4.5732897726
 H        -9.8300244760        3.0358109776       -6.2078290198
 H       -10.1104282987        4.2498774098       -4.9493059222
 H       -12.4947513720        7.2669777634       -6.3075849249
 H       -11.4823065163        8.1437144993       -7.4085087028
 H       -11.7516224591        9.4250460358       -5.3294720958
 H       -10.0977486167        9.3197478570       -5.6788071020
 H        -6.3116769153        7.4476432274       -3.9176963839
 H        -7.0580818070        9.0018322759       -4.4749542590
 H        -7.4888884230        7.3274509347       -5.2353792708
 H       -10.3831563101       10.8272919326       -3.6893405868
 H        -8.8600627265       10.3388978084       -4.4476165830
 H        -8.8700669815       10.7934299893       -2.8750707164
 H       -10.4189853860        9.7060123897       -1.3642351892
 H        -9.1924081861        8.5278100024       -0.8811402837
 H       -10.6631752224        7.9631193291       -1.4714817650
 H        -9.7683339034        4.0091095289       -9.1250943595
 H        -8.8717472130        4.3676418731       -7.6123399844
 H        -9.0888346292        5.5571585164       -8.7991345307
 H       -12.3496247049        4.8247188644       -9.2165195613
 H       -11.6963397946        6.4948787523       -9.2853966047
 H       -12.7959024622        6.1392536358       -8.0979873960
 H       -13.7044594804        0.1299165127       -2.0836823021
 H       -11.8805400619        0.1437325584       -2.4476609436
 H       -13.1563050943        0.3745416343       -3.6927576517
 H       -14.5999572572        3.3179081928       -2.2882240667
 H       -14.8815185639        1.9965232091       -3.1250948681
 H       -14.0615007968        3.3915073663       -3.9123901739
 H       -10.8201112847        5.3829087313        3.9103161303
 H        -9.3586585820        4.5899504681        3.7769438235
 H       -10.7680151396        3.7935440990        3.1907544643
 H       -10.1254600471        7.4119464536        0.9855058053
 H        -8.6003420034        7.0988550573        1.7564340777
 H       -10.0500384948        7.5361791158        2.6974985461
 H        -6.3276421778       -1.1920576915        1.1060145337
 H        -4.9969131040       -0.2029166478        1.7137410426
 H        -6.0277216236        0.4061395330        0.4972391868
 H        -9.1476602171        0.4097868506        2.5902361641
 H        -8.3962575055       -1.1202972514        2.7119878220
 H        -8.5685896088       -0.3986693533        1.0992206167
 H        -6.6286862655        0.9466285685        8.9467763551
 H        -5.9064606436       -0.7334906486        9.3657546142
 H        -6.9095194562        0.1394822636       10.4832603256
 H        -8.9114130923       -2.6151260078        9.4032077619
 H        -7.6702124019       -2.2492768324       10.5891242752
 H        -7.2815131507       -2.8264787859        8.8567295705
 Na      -10.4005601108        5.7120402273       -1.8223221845
