117

 C        -3.3420858052       11.2070948665       -3.0677823656
 C        -4.6272928678       10.5644316992       -2.4621106731
 O        -5.7096236462       11.0398529551       -2.7760939102
 C        -4.5758198033        9.4249596937       -1.2997373569
 C        -6.0939288531        8.9674945088       -1.1756372474
 O        -6.4798037445        7.9030793927       -1.5847070632
 C        -6.8769544227        9.8139172437       -0.1212705773
 C        -8.3590387932        9.6330646521       -0.1611249263
 C        -8.9962466067        9.4983038786        1.2114767732
 O        -8.4335481546        9.7583756636        2.2637732778
 C       -10.5590417256        9.0373579853        1.2379019850
 C       -10.5265393093        7.5496166903        1.5755103523
 O       -10.7149807692        6.7245471725        0.6563781708
 C       -10.2213184955        6.9828049541        2.9388270297
 C       -10.5899512990        5.5096836534        3.1210503616
 C       -12.1611851602        5.3743598568        3.3247139278
 O       -12.9011259235        6.2802580841        3.5944539418
 C       -12.6804812777        3.8701486736        3.3558902845
 C       -12.8264023793        3.2415237053        1.8807129624
 O       -12.3239968679        2.1487925199        1.6685739655
 C       -13.7175850140        4.0539982665        0.9407567617
 C       -13.1087832697        4.4954947893       -0.4044496449
 C       -12.7142236496        3.3518507390       -1.2291296933
 O       -13.2446194638        2.2812764570       -1.1389834625
 C       -11.4234264359        3.5549788037       -2.2084974814
 C       -10.1768457520        2.8035698510       -1.4640240436
 O       -10.3668211283        1.6931914152       -0.9212060927
 C        -8.7850103351        3.4343381334       -1.4737882842
 C        -7.7928914377        2.6555268808       -0.5238502562
 C        -7.7796515680        1.2091792137       -1.1185449128
 O        -7.5673232223        1.0379186785       -2.2821416327
 C        -7.8946468848       -0.0933141959       -0.0573280511
 C        -9.0673527802       -0.9283818269       -0.5203341784
 O       -10.1208336801       -0.8498776004        0.1048258646
 C        -8.9615119423       -1.8192351108       -1.7098651123
 C       -10.3471903803       -2.3232246493       -2.1519776286
 C       -10.8769779502       -3.4084485407       -1.1802907932
 O       -10.1717619446       -4.2435994865       -0.6600560046
 C       -12.4681798545       -3.4603591672       -1.2066062312
 C       -12.9113874324       -2.1727767450       -0.3965845103
 O       -13.1203948241       -1.1501562291       -1.0165521947
 C       -13.0539187817       -2.2896881842        1.1095607183
 C       -12.9580735955       -3.4642174525       -2.6296886427
 C       -12.7398910801       -4.8685708836       -0.4572178044
 C        -6.5445149551       -0.8522696934       -0.2153234682
 C        -8.1360767495        0.2998096944        1.4164663943
 C       -11.7507784008        2.8647086522       -3.5448569007
 C       -11.0119891218        5.0566810097       -2.4959983770
 C       -11.6459194658        2.9987122179        4.1862968349
 C       -14.1487299414        3.8750588541        3.8858340716
 C       -11.1948574489        9.8855955434        2.3818194053
 C       -11.2649169352        9.2293439488       -0.1447584415
 C        -3.6511095040        8.2794667173       -1.7237821271
 C        -3.9971126737       10.0287916253        0.0295541182
 H        -3.0214919902       10.7624332922       -4.0269035422
 H        -2.5073946081       11.0979809429       -2.3726564081
 H        -3.5164715346       12.2145840524       -3.2516988621
 H        -6.5956302622       10.8243152638        0.0753698480
 H        -6.5203861260        9.3781773825        0.8314642717
 H        -8.6789093362        8.8109397896       -0.7864480839
 H        -8.7192346085       10.5607194133       -0.5938292819
 H       -10.7663107470        7.6148155214        3.6151504705
 H        -9.1529343704        7.1950984514        3.1785602193
 H       -10.0257822858        5.0790822705        4.0378204749
 H       -10.3542588773        5.0196679836        2.1747769964
 H       -14.1304678050        4.9034276125        1.4647729666
 H       -14.6698542537        3.4652094099        0.6296748497
 H       -12.2567170257        5.1753673681       -0.2502235134
 H       -13.8988307618        5.1064846590       -0.9397611321
 H        -8.7616827798        4.5044409733       -1.1502745743
 H        -8.5155957229        3.2888885337       -2.5173926109
 H        -8.2743361510        2.7462643940        0.4763205117
 H        -6.8268796471        3.1335113786       -0.5296772054
 H        -8.4171757375       -2.6807447400       -1.3374451554
 H        -8.3237762363       -1.4408675691       -2.5301068080
 H       -10.2183205738       -2.8138049882       -3.1477113401
 H       -11.0063640587       -1.5085603634       -2.1061360258
 H       -12.0329690792       -2.2259869055        1.4530354997
 H       -13.3436959340       -3.3143058619        1.2945691978
 H       -13.6516236018       -1.5413923660        1.5683152404
 H       -12.6633860381       -4.4231164153       -3.1480096346
 H       -12.4074700701       -2.6650878385       -3.2221915695
 H       -13.9796370104       -3.2891813041       -2.6606677351
 H       -13.6971672511       -5.1467413821       -0.0869767385
 H       -11.9094764962       -5.0617518171        0.1877613104
 H       -12.4752227422       -5.5778767066       -1.2460818104
 H        -6.6357539574       -1.7454646486        0.5240280398
 H        -5.7431431577       -0.1882304522        0.0034965476
 H        -6.3998815189       -1.2995857062       -1.1525250201
 H        -9.0638977066        0.8168751714        1.4884535854
 H        -7.3820686739        0.9090173991        1.8796171818
 H        -8.2358766526       -0.6019691838        2.0297673360
 H       -11.3262488879        3.4285423170       -4.3445528980
 H       -12.7933702920        2.9028611537       -3.6088209500
 H       -11.3555996375        1.8066784018       -3.5678397769
 H       -10.5823473209        5.5963484340       -1.7023604834
 H       -11.9420422446        5.6596122043       -2.8541530625
 H       -10.3632564258        5.0670500540       -3.3925792467
 H       -11.8219366869        1.9669431300        4.1665644397
 H       -11.6012634984        3.3644700590        5.2224531659
 H       -10.6895419988        3.0963349190        3.7472993270
 H       -14.5420493709        2.8672655022        3.6709365165
 H       -14.8074233897        4.5596504257        3.3326166630
 H       -14.1527275520        4.1133043680        5.0205858999
 H       -11.3070782931       10.9100835413        2.0701658487
 H       -10.4597398552        9.9192889166        3.1479024313
 H       -12.1784631789        9.4861081687        2.7553968812
 H       -12.3203670691        9.0294286469       -0.0888353291
 H       -10.8479648370        8.5598814054       -0.9645027731
 H       -11.1947687933       10.2415028393       -0.5357666004
 H        -2.6834028213        8.6866003855       -1.9847718287
 H        -4.0403572873        7.7944297014       -2.5917691350
 H        -3.4575984527        7.5320630107       -0.9172472630
 H        -4.4372116903        9.4647973213        0.8906157254
 H        -4.1492610706       11.0508138196        0.2336919364
 H        -2.9199213888        9.8725667764       -0.0360341644
 Na      -12.1994673542        0.5954922763        0.2480966311
