117

 C        -3.0309816725       11.0582754233       -3.0225696339
 C        -4.4711129488       10.6163627264       -2.4995761977
 O        -5.5668643787       10.8941474908       -2.9609274073
 C        -4.4348793234        9.5543938089       -1.2962539656
 C        -5.8325875692        8.9344082588       -1.0401209099
 O        -6.0922985724        7.8185324564       -1.4047790972
 C        -6.8161510527        9.8012994071       -0.1589551571
 C        -8.2682150190        9.1997900677       -0.2370738979
 C        -8.9894107387        9.1873690645        1.1061163196
 O        -8.4627678192        9.3749504678        2.1996308688
 C       -10.5703321863        8.8067576065        1.0918617150
 C       -10.4978058594        7.3020960490        1.3415169806
 O       -10.8267816501        6.5811804664        0.4173452944
 C       -10.0252281065        6.6905164834        2.6434510863
 C       -10.6133003284        5.3706258788        2.9987913155
 C       -12.1766548364        5.3990063815        2.9899981708
 O       -12.8259844851        6.2921681220        2.5097774465
 C       -12.8737703587        4.0062346746        3.3733209787
 C       -12.8827198401        3.1887245459        1.9836242497
 O       -12.1322228721        2.2345155800        1.8583000175
 C       -13.6352854042        3.8169306894        0.7721865461
 C       -12.7811105134        4.5568383150       -0.3009985422
 C       -12.4993382740        3.5624159826       -1.3529401070
 O       -13.2194929851        2.5551031348       -1.5069528918
 C       -11.3694916463        3.7708477692       -2.3824879416
 C       -10.1651380151        2.8640262030       -1.7908101321
 O       -10.3697054486        1.7070461283       -1.5161176223
 C        -8.6710983462        3.4195138669       -1.8894505488
 C        -7.9415715956        2.7049644681       -0.7017795065
 C        -7.8615338620        1.1566601613       -0.9856609019
 O        -7.5161429800        0.7525443863       -2.0746478474
 C        -8.0325625875        0.0584542693        0.1776958554
 C        -9.2679153317       -0.7955290078       -0.2337765380
 O       -10.3617140402       -0.6048375869        0.3346540767
 C        -9.1091239704       -1.8959947361       -1.3326392666
 C       -10.5458292002       -2.3018026047       -1.8883252559
 C       -11.0643939404       -3.5553040910       -1.0559246857
 O       -10.2279405813       -4.3725502549       -0.7425691101
 C       -12.6541890148       -3.5641641671       -0.6916323609
 C       -12.9099421781       -2.2228938072       -0.0140635355
 O       -13.0916310723       -1.1717303577       -0.6496853746
 C       -12.6704406701       -2.2268152875        1.5360517439
 C       -13.4799231173       -3.8534842731       -1.9229000424
 C       -13.1179252572       -4.7797591069        0.2241888706
 C        -6.7151733598       -0.8918142200        0.0831074213
 C        -8.1694517408        0.6765576160        1.5734754843
 C       -11.7334575305        3.2444172882       -3.7822194060
 C       -10.9503723165        5.2829286651       -2.4746845610
 C       -12.0321469719        3.2235477525        4.4306020781
 C       -14.3301432206        4.1923726393        3.9213064794
 C       -11.2378096330        9.5754418633        2.2174573371
 C       -11.3850972257        9.1449549077       -0.2189132200
 C        -3.4140112349        8.5114520271       -1.6258259889
 C        -4.0112654053       10.2962570382        0.0073452907
 H        -2.8391277812       12.0586977553       -2.7616802681
 H        -2.9264886430       10.8941610184       -4.1386661672
 H        -2.2659283844       10.4107405299       -2.5986179595
 H        -6.8097274495       10.8530482416       -0.5239707711
 H        -6.4259701149        9.7818870816        0.8547593642
 H        -8.1711413255        8.1493128736       -0.5979014236
 H        -8.7641958210        9.7849448129       -1.0342004997
 H        -9.9112374146        7.4200250235        3.4272891655
 H        -8.9871199105        6.5075561198        2.4031108965
 H       -10.2472079806        5.0726491725        3.9461519098
 H       -10.3414108838        4.5969090096        2.2302562403
 H       -14.2123766617        4.6219880984        1.2774313762
 H       -14.2976989410        3.1410392101        0.2755665941
 H       -11.8108754128        4.9481652869        0.0950630107
 H       -13.4415026643        5.3559648721       -0.6394395445
 H        -8.6829932474        4.4644595504       -1.8153668689
 H        -8.2234839412        3.1134015980       -2.8696109582
 H        -8.5805546317        2.8884926271        0.1386498654
 H        -6.9251931703        3.0480172752       -0.4592243168
 H        -8.5662482059       -2.7336917142       -0.8041967311
 H        -8.4106175302       -1.6524895327       -2.1131297672
 H       -10.5199944819       -2.5978509093       -2.9196012019
 H       -11.0793312959       -1.3475096153       -1.7062313390
 H       -12.0015129765       -3.0249145369        1.8834208655
 H       -13.6216659475       -2.3882570240        2.0123949780
 H       -12.3109883076       -1.2044070041        1.7878077478
 H       -13.1598911524       -4.8321252251       -2.3748930660
 H       -13.3600325209       -3.0421991529       -2.6511588891
 H       -14.5427440107       -3.8807795537       -1.7271260472
 H       -14.0864818924       -4.5743530531        0.7337361405
 H       -12.4696317247       -5.1181847082        1.0197168090
 H       -13.3462700874       -5.5746850221       -0.4251308338
 H        -6.7052165024       -1.6326270131        0.9311248479
 H        -5.8414789938       -0.2657601156        0.0546216767
 H        -6.7893389082       -1.4263379438       -0.8799624923
 H        -8.9832309500        1.3786151934        1.6362479049
 H        -7.2698653670        1.1901270848        1.9118958158
 H        -8.3805993341       -0.0617707158        2.3094675515
 H       -10.9498598437        2.5667323707       -4.1167852924
 H       -11.7809478531        4.0946689340       -4.4706917513
 H       -12.6702927816        2.6683970161       -3.5932184052
 H       -10.4880045871        5.7493516394       -1.5901254722
 H       -11.8289124370        5.7992645657       -2.7223746078
 H       -10.2109147601        5.3475603683       -3.2720420446
 H       -12.5742206879        2.3554343374        4.6880154558
 H       -11.8566859437        3.7276120641        5.3273000604
 H       -11.0818528553        2.9056929224        4.0191281219
 H       -14.6718153935        3.3155256350        4.5269540932
 H       -15.0845490215        4.4332043865        3.1802426148
 H       -14.3515849559        4.9735329279        4.7010356663
 H       -11.0519686319       10.7058442762        2.0335940817
 H       -10.9937479109        9.2213885071        3.1951716074
 H       -12.3048524444        9.4073535395        2.2123107659
 H       -12.4540186654        9.3019163037        0.0182772958
 H       -11.3032749336        8.2907711194       -0.8889211806
 H       -11.0190706539       10.0296464595       -0.7511541523
 H        -2.4248486161        8.7416167982       -1.2357323964
 H        -3.3077899963        8.3710738680       -2.7171239419
 H        -3.7226760925        7.5640765332       -1.2527639548
 H        -4.1322585560        9.7867003905        0.9251044223
 H        -4.5029300876       11.2610700618        0.0286216936
 H        -2.9736404805       10.5263932517        0.1244760000
 Na      -12.0652936699        0.9174497445       -0.1492044484
