117

 C       -10.5206338924       -0.4621448973        9.3138792625
 C        -8.9950989722       -0.0365271359        9.7219098666
 O        -8.8962521553        0.7089682754       10.6588013733
 C        -7.6946792787       -0.6407361144        8.9981054783
 C        -8.0053017168       -0.5999085776        7.4595828726
 O        -9.0388969110       -1.0751691452        7.0444234700
 C        -7.0021870545        0.0663251885        6.5411416145
 C        -7.6364043787        0.0559328155        5.1220606894
 C        -6.6487080170        0.3786550615        3.9654662480
 O        -5.4382009709        0.4244233525        4.0974351928
 C        -7.2547410493        0.5720799577        2.4558735901
 C        -7.5876824281        2.0440691091        2.5770820124
 O        -8.1607555796        2.5217851439        3.5859040732
 C        -6.9834690834        2.9095148589        1.5548941458
 C        -7.4608095131        4.3933347562        1.6299326212
 C        -8.8501879552        4.5236768650        1.0091100773
 O        -8.9941506861        4.3287038347       -0.2109692840
 C       -10.0715143262        5.2353986267        1.6962602660
 C       -11.3788201454        5.0653131243        0.7462316721
 O       -11.5195420201        5.9290729962       -0.0978072483
 C       -12.4019530804        3.9205668245        1.0735999666
 C       -13.2118740469        3.5082083605       -0.1077053445
 C       -12.6290926494        2.2427081122       -0.8192103859
 O       -11.8565901477        1.4967310243       -0.2870338725
 C       -13.0322794799        1.9923326765       -2.3778536509
 C       -11.8531117159        2.8820258932       -3.1207868567
 O       -11.4484315778        3.8917921032       -2.6078909251
 C       -11.5489173758        2.5425070539       -4.6028434981
 C       -10.8021465232        3.6317779788       -5.2575416816
 C       -11.5387606940        4.0961217855       -6.5539682419
 O       -12.7460087453        3.8159774895       -6.7335733530
 C       -10.8280939748        5.2143515933       -7.6288095821
 C       -10.4548594162        6.4232853205       -6.7088046047
 O        -9.3886493472        6.5881721690       -6.1310889529
 C       -11.5569780547        7.5631706751       -6.4685195598
 C       -10.9980724921        8.6158364586       -5.5294407909
 C       -10.7893162553        8.0046321790       -4.1946160457
 O       -11.3752648160        7.0381244534       -3.8449461945
 C        -9.6292636167        8.5734858343       -3.3243969887
 C        -8.4047847864        7.6078880719       -3.5690985681
 O        -8.2329968787        6.6221874119       -2.9177596590
 C        -7.2642139584        8.0911354573       -4.5827573591
 C        -9.0917312023        9.9930001507       -3.7348286159
 C        -9.9595667049        8.5636961722       -1.7649619680
 C        -9.5612408024        4.4672714356       -8.2202161179
 C       -11.9330123027        5.6131560743       -8.6504631831
 C       -12.8874810252        0.5127170266       -2.7472270278
 C       -14.4106787171        2.7757147733       -2.7768840227
 C       -10.3714134457        4.6364166000        3.1754047893
 C        -9.6454163950        6.7607624938        1.9741493250
 C        -6.1570617212        0.1844591495        1.3913281495
 C        -8.5852083841       -0.2022546925        2.2990403035
 C        -6.4339979464        0.1589573863        9.4161120834
 C        -7.6370064021       -2.1835651461        9.4317156966
 H       -10.6486512468       -1.5338665490        9.1135848355
 H       -10.8022074602        0.0230530485        8.4340826342
 H       -11.0862538753       -0.0754337677       10.0811818109
 H        -6.0789834279       -0.4296018755        6.5990824628
 H        -6.7505240197        1.1290801289        6.8442685566
 H        -8.5503501349        0.7364280337        5.0898911925
 H        -8.0107721452       -0.9694962584        4.7753045945
 H        -7.2182969716        2.4821989175        0.5102634590
 H        -5.8574193939        2.8619595948        1.5845531780
 H        -6.7649781439        5.1318112163        1.1214226499
 H        -7.5660315525        4.6693971275        2.6519375974
 H       -13.0438610745        4.3139643570        1.8555141272
 H       -11.7630338371        3.0908161629        1.3087962972
 H       -13.0592670351        4.3265092657       -0.8511967193
 H       -14.2614484378        3.2394094324        0.1295471624
 H       -12.4423956035        2.2915254769       -5.1189549898
 H       -10.9865132100        1.6581720298       -4.5260101741
 H        -9.8170039891        3.4170464833       -5.4994232261
 H       -10.7520912565        4.4993105147       -4.6275948696
 H       -12.4837607360        7.0992648843       -6.1718256133
 H       -11.6871025645        7.9934143728       -7.4831821789
 H       -11.4851431036        9.5591500592       -5.5119756287
 H       -10.0623569932        8.9426503337       -5.8304452784
 H        -6.6941568241        7.2595014512       -4.9453810711
 H        -6.5910590428        8.6225627806       -3.9977220429
 H        -7.6293507474        8.6204052092       -5.4273454171
 H        -9.8262089184       10.6883265374       -3.5972016957
 H        -8.7210855486       10.0846788872       -4.8290691622
 H        -8.2734836319       10.3615342666       -3.0887873277
 H       -10.9943554954        8.9360103279       -1.5718199265
 H        -9.2965361473        9.3085424825       -1.3195114987
 H        -9.7229113561        7.6897790099       -1.2923497331
 H        -9.8517082025        3.8289964768       -9.0292363387
 H        -9.1370109321        3.8537458059       -7.4104537597
 H        -8.7797975875        5.1338933840       -8.7130134633
 H       -12.1311616752        4.7672532369       -9.2938071796
 H       -11.6880878811        6.4758576773       -9.3103883317
 H       -12.7743244837        6.0650192350       -8.0659344412
 H       -13.8878937310        0.1090065177       -2.5937341211
 H       -12.2141953782        0.0521431193       -2.0325537573
 H       -12.5556904516        0.2730503984       -3.7437244455
 H       -15.2414385461        3.0039902723       -1.9705031058
 H       -15.0537260344        2.2133585405       -3.4851957499
 H       -14.1118099901        3.7093635463       -3.2726019597
 H       -11.2580016521        5.0716838584        3.6468495073
 H        -9.4675703316        4.8071243013        3.9309372547
 H       -10.5581856751        3.5901646748        3.1557411177
 H       -10.0355847484        7.4169597297        1.2546272891
 H        -8.5623294658        6.8853043393        2.0177520878
 H       -10.0321726649        7.1228060938        2.8991561679
 H        -6.0747116285       -0.9170507802        1.4219202756
 H        -5.2022415134        0.5728344893        1.6824567650
 H        -6.3407690032        0.5926424525        0.4038650833
 H        -9.0840700074       -0.2138118744        3.2757809364
 H        -8.3723974979       -1.2742379996        2.0287647909
 H        -9.0352437817        0.3768661484        1.5000643026
 H        -6.7796575375        1.2022807447        9.2906423695
 H        -5.6723399147       -0.1002006815        8.6701152431
 H        -6.0876512535       -0.0192042040       10.4590663160
 H        -8.4240506106       -2.8984677980        9.1007017118
 H        -7.6437790573       -2.1571431025       10.5299491762
 H        -6.6900129081       -2.5320290943        8.9263305640
 Na      -10.1094875017        5.8204547140       -1.9489290111
