117

 C        -3.2074333391       11.0319825452       -3.1329595900
 C        -4.4154030654       10.5303356067       -2.3534413320
 O        -5.5011190867       10.7836734707       -2.8147319191
 C        -4.2362543256        9.6491161953       -1.0950086621
 C        -5.6664125984        8.9279672995       -0.8571088596
 O        -5.8830087740        7.7288327109       -1.0392610913
 C        -6.7704304078        9.8787814439       -0.4208769342
 C        -8.1929204783        9.2861392929       -0.5174950631
 C        -8.8243692803        9.2410121307        0.8164535656
 O        -8.2939480031        9.5607310899        1.8350520917
 C       -10.4490483166        8.7463414046        0.9602053273
 C       -10.1875864491        7.2735012453        1.3856212890
 O       -10.0296291123        6.4140806905        0.4882247407
 C        -9.9804008223        6.8642468208        2.8646184415
 C       -10.6400801594        5.4711705965        3.0502454097
 C       -12.1193096454        5.3747546266        2.8319735748
 O       -12.7012770491        6.2815271011        2.2888119700
 C       -12.9419927119        3.9613606674        3.0815368518
 C       -13.1709544582        3.1412806738        1.7982928718
 O       -12.5993824529        2.0815911412        1.6530465729
 C       -14.0585367245        3.8098450438        0.5866429982
 C       -13.0125703260        4.3465930993       -0.4139285739
 C       -12.6207368956        3.3354907483       -1.6451725609
 O       -13.2212091854        2.3073205424       -1.8310419273
 C       -11.3245609841        3.6919484243       -2.5490454891
 C       -10.1175485608        2.8960330934       -1.9528177370
 O       -10.3728022494        1.8389290864       -1.3899793578
 C        -8.6557538308        3.2443372294       -2.1026312586
 C        -7.8207997658        2.5933459317       -1.0023702836
 C        -7.8174866830        1.0797006162       -1.0997285085
 O        -7.4664311978        0.5290774108       -2.1207063280
 C        -8.0441768587        0.1045726491        0.1935755626
 C        -9.3573966635       -0.8228290823       -0.2063365687
 O       -10.4423919940       -0.6283430860        0.3098923419
 C        -9.1850596505       -1.9166663295       -1.2036877861
 C       -10.5390345206       -2.3899745403       -1.7502479571
 C       -11.0943781309       -3.4562559256       -0.7271660334
 O       -10.2802825665       -4.1642556450       -0.1571386052
 C       -12.6822843273       -3.4722786623       -0.2875453980
 C       -13.0122979446       -2.0871751717        0.4812253879
 O       -13.5159724765       -1.1684145141       -0.1120380715
 C       -12.5630575826       -1.9581875104        1.9717734120
 C       -13.5536021386       -3.4299523329       -1.5657595703
 C       -13.0208021843       -4.5724377978        0.6728905928
 C        -6.8719172985       -0.8429766574        0.2495878119
 C        -8.2682895272        0.8673955868        1.5069315440
 C       -11.6705164721        3.1259242452       -4.0075143817
 C       -11.0859991411        5.1924183931       -2.6152143391
 C       -12.2183858875        3.0262520603        4.1839375099
 C       -14.3009063926        4.5020603923        3.6100516711
 C       -11.0788297007        9.5915445285        2.0760317307
 C       -11.2437193929        8.8798417007       -0.3537655303
 C        -3.1830984959        8.5301158541       -1.5630668092
 C        -3.7302204924       10.2889100872        0.1914331348
 H        -2.5125332203       10.1860670494       -3.4001606821
 H        -2.6840430729       11.7207595454       -2.5367405105
 H        -3.5190953163       11.4882136197       -4.0741238855
 H        -6.6410023485       10.7781128738       -1.0076145705
 H        -6.7197585001       10.0830237313        0.6589151232
 H        -8.2280955521        8.3008307795       -1.0239042378
 H        -8.8730150469        9.9199909876       -1.1140851310
 H       -10.4951522720        7.5828289911        3.4630452569
 H        -8.9181073640        6.9185862364        3.1963917978
 H       -10.3818539410        4.9966841013        4.0293099960
 H       -10.2822054615        4.7563452903        2.3494859073
 H       -14.6396620570        4.5902177468        0.9620974456
 H       -14.6626698071        2.9821566544        0.1641810083
 H       -12.1331346472        4.7365041977        0.1397164280
 H       -13.4427826688        5.2113881147       -0.9657016253
 H        -8.4919637402        4.3140333754       -2.2262928840
 H        -8.3385151357        2.8259693662       -3.0501157013
 H        -8.0662503132        2.9079587318        0.0289301183
 H        -6.8595491188        3.0201972878       -1.1038820380
 H        -8.7491593526       -2.8524020753       -0.7513247790
 H        -8.4261321973       -1.6806827977       -1.9605480911
 H       -10.4500246585       -2.8325548108       -2.7888947053
 H       -11.2133849850       -1.5695991840       -1.8569637560
 H       -11.4841835767       -1.8823707859        1.9132808058
 H       -12.8234026407       -2.8295932198        2.5863534500
 H       -12.9796223935       -1.0952411512        2.4070854410
 H       -13.1653441073       -4.2572162263       -2.1626331910
 H       -13.5431808257       -2.5017331663       -2.1836707308
 H       -14.5953793895       -3.7205731206       -1.4014243369
 H       -14.0348223187       -4.4685801127        0.9741806655
 H       -12.5311481128       -4.4982202794        1.6254855614
 H       -12.8449699428       -5.6134446214        0.3625245333
 H        -6.9831118904       -1.5174020766        1.0885096618
 H        -5.9800192453       -0.3009045492        0.5818238525
 H        -6.7324048797       -1.1996411742       -0.7575723474
 H        -9.0073998996        1.6218574575        1.4827165719
 H        -7.3760162156        1.4024100035        1.7473511192
 H        -8.4848210896        0.2012390034        2.3315187972
 H       -11.1074283844        3.8155118283       -4.6567291413
 H       -12.7352271926        3.0903810733       -4.1885495790
 H       -11.3001963519        2.1009527759       -4.0821088647
 H       -10.7194893326        5.4301149907       -1.6571572167
 H       -12.0365245852        5.7547287892       -2.8213597573
 H       -10.4325397729        5.4335956172       -3.4060912339
 H       -12.9052607376        2.2621555777        4.4475984037
 H       -11.8877791446        3.5354442813        5.0973900433
 H       -11.3417022265        2.5647068142        3.8157181499
 H       -15.1702266309        3.8866474566        3.4739925284
 H       -14.6081006317        5.5099675493        3.3107287783
 H       -14.2185249242        4.7030579571        4.7074887324
 H       -10.9665653629       10.6309988981        1.9985867156
 H       -10.5364989906        9.4082653372        3.0495800569
 H       -12.1990137576        9.3847435610        2.2163583380
 H       -12.2763092531        8.9283323021       -0.1065262559
 H       -11.0259519956        8.0317308267       -1.0451162904
 H       -10.8814464254        9.7790529941       -0.8293664868
 H        -2.3165442254        8.9404012098       -2.0826459091
 H        -3.6736764135        7.8534505243       -2.2505511957
 H        -2.8047354961        7.9162349340       -0.6942816592
 H        -3.6739072548        9.6229975716        1.0666326858
 H        -4.2228843215       11.0840768550        0.6475099639
 H        -2.7163008532       10.5882065202        0.0291816973
 Na      -12.4931174719        0.9184560060       -0.3256491619
