117

 C        -3.1073774096       11.0811448896       -3.1644071196
 C        -4.3490003772       10.5478775362       -2.3921887877
 O        -5.4424803119       10.7882467037       -2.8667377741
 C        -4.2121139816        9.5920015307       -1.1126951189
 C        -5.6158658759        8.9517940792       -0.8362653027
 O        -5.8092008842        7.7652813847       -0.9884087705
 C        -6.7632005268        9.8952923037       -0.3264835811
 C        -8.1878991444        9.2419191696       -0.5348567503
 C        -8.9017521342        9.2336579034        0.8192127683
 O        -8.3386771473        9.6024747710        1.8193930369
 C       -10.3632198387        8.7416811268        0.9897656892
 C       -10.1951652792        7.2678664918        1.4403465380
 O        -9.9936213257        6.4461918710        0.5648618468
 C        -9.9834147999        6.7806921376        2.8888079054
 C       -10.5435548636        5.3454265876        3.0802145964
 C       -12.0738871172        5.3228873314        2.7344300714
 O       -12.6693273358        6.2285055649        2.1823209729
 C       -12.9902165337        4.0390285255        3.0972756272
 C       -13.1621288382        3.2444043955        1.7609666591
 O       -12.7416212331        2.1000781445        1.5732906381
 C       -13.9633859773        3.8450419193        0.5747611880
 C       -13.0416203315        4.2971875904       -0.5056767656
 C       -12.6842952315        3.3673304090       -1.6267052113
 O       -13.3529586227        2.3910480214       -1.8773889842
 C       -11.3728428120        3.6510506617       -2.4696706958
 C       -10.1973789966        2.8170052731       -1.9300225448
 O       -10.3732215231        1.7603811511       -1.3033318902
 C        -8.7077713439        3.2465973918       -2.1800149470
 C        -7.8342974441        2.5881147257       -1.0432663927
 C        -7.8105540679        1.0543254959       -1.1189017112
 O        -7.5877956215        0.5000083965       -2.2024758907
 C        -8.0976917480        0.0621994876        0.1101654492
 C        -9.3946621278       -0.7203936245       -0.1941459698
 O       -10.4442872198       -0.4826429978        0.3716000941
 C        -9.2660545113       -1.9044867794       -1.2015272286
 C       -10.6834017283       -2.4118326335       -1.6537490896
 C       -11.1862768975       -3.3040838323       -0.5263909824
 O       -10.4139018508       -4.0303926442        0.0577479830
 C       -12.6964390463       -3.4333984970       -0.2157972526
 C       -12.9338037952       -2.0338324510        0.5054163650
 O       -13.5237960938       -1.1161422628       -0.0513057954
 C       -12.4953590211       -2.0123789081        1.9081892347
 C       -13.4734873986       -3.4970619665       -1.5266063520
 C       -12.8931494917       -4.5802609828        0.7063484378
 C        -6.8413886066       -0.8894055379        0.3643920015
 C        -8.3559435456        0.8387346159        1.3806513129
 C       -11.6105875892        3.0108650495       -3.8773087695
 C       -11.0350555022        5.1966587156       -2.6272462337
 C       -12.2968209350        3.1885951716        4.1049020084
 C       -14.4229798146        4.3652133882        3.6149383223
 C       -11.0804522583        9.7081965070        1.9433133320
 C       -11.1366912057        8.7265098819       -0.3592957064
 C        -3.2941652195        8.4482227038       -1.4869634506
 C        -3.6038374721       10.3260315999        0.1071544513
 H        -2.2043742223       10.5101038158       -2.9677503789
 H        -2.9341037461       12.0970472914       -2.8065089407
 H        -3.2939353377       11.0785980719       -4.2872579664
 H        -6.6912881390       10.8698206157       -0.8130294007
 H        -6.7220879572       10.0046250418        0.7998406845
 H        -8.0796087997        8.2015091150       -0.9704788879
 H        -8.8220076207        9.7822192809       -1.2792080256
 H       -10.2003247533        7.5004149946        3.7181244702
 H        -8.8922228512        6.6622756629        2.8923257082
 H       -10.3512039198        4.9788963878        4.0937512914
 H       -10.0680417106        4.6443660411        2.4760270550
 H       -14.4960436960        4.7270819048        0.9247050041
 H       -14.6099458927        3.0517453238        0.2979791336
 H       -12.1771659511        4.7805405620       -0.1071605377
 H       -13.5795204018        5.0855675755       -1.0538996203
 H        -8.6220976354        4.3833466683       -2.2173346374
 H        -8.3805715991        2.9563767250       -3.1414312341
 H        -8.0700270625        2.9109604051       -0.0410720748
 H        -6.8347405384        3.0350664593       -1.1479175906
 H        -8.7983182033       -2.7706312597       -0.7407801841
 H        -8.5407206668       -1.6991264763       -2.0601147085
 H       -10.7834304668       -3.1056219745       -2.5073555500
 H       -11.3046187601       -1.5640960382       -1.9562005703
 H       -11.3919807586       -1.9786258402        1.8531434203
 H       -12.7904445615       -2.9887237619        2.3749415713
 H       -12.8946591498       -1.1586895387        2.5083958399
 H       -12.9918317049       -4.2724186476       -2.0397284044
 H       -13.4416767216       -2.6231153402       -2.1239399792
 H       -14.5653401592       -3.8477683642       -1.4860452737
 H       -13.7834273342       -4.4791599606        1.2692669297
 H       -12.1250483738       -4.8021237371        1.4443826227
 H       -12.9641224776       -5.5251301837        0.1587643523
 H        -6.8312229270       -1.1481121500        1.3492603674
 H        -5.9283061343       -0.2010625831        0.3614649566
 H        -6.7209947387       -1.6383879501       -0.4486830134
 H        -9.0051758566        1.7105196280        1.3217019222
 H        -7.4322349531        1.2482836018        1.7028091777
 H        -8.7124111067        0.1780402214        2.1583765907
 H       -10.8183999243        3.5473494505       -4.4726950112
 H       -12.6883106292        3.0431110775       -4.2670120957
 H       -11.3679820467        1.9845108629       -3.8028946173
 H       -10.7185081218        5.6558785058       -1.6484770533
 H       -11.8391328011        5.6833449668       -3.0679651768
 H       -10.2878616170        5.2654574336       -3.3697576573
 H       -12.9189539904        2.3543391134        4.4016249457
 H       -12.0793017797        3.7589146027        4.9484732537
 H       -11.3859937684        2.7884182754        3.7612204585
 H       -15.0968473278        3.5624148124        3.4002020846
 H       -14.8939175621        5.2518039699        3.1277619621
 H       -14.5494585397        4.6190950610        4.6080124413
 H       -10.9256236575       10.7779172251        1.7093721702
 H       -10.6465921443        9.7087658644        2.9991132431
 H       -12.1343543942        9.5267496218        1.9597427870
 H       -12.1791683227        8.8794516077       -0.0510392596
 H       -11.0455536352        7.7665156845       -0.8201547298
 H       -10.7584122544        9.4954980753       -1.0518045020
 H        -2.3760549891        8.8033491439       -1.9365672789
 H        -3.7829578157        7.8082138020       -2.2058291802
 H        -3.0595673570        7.8592726861       -0.6030045825
 H        -3.6184553178        9.9156891856        1.0951993110
 H        -4.1652992505       11.2554308478        0.3846522091
 H        -2.6050637755       10.6820057760       -0.1267396768
 Na      -12.3125482590        0.8654115028       -0.4556210736
