117

 C        -3.0253189550       11.1515188111       -3.0586423640
 C        -4.3034304709       10.4864054664       -2.4862507246
 O        -5.4272779017       10.8124419265       -2.8519953459
 C        -4.1470854487        9.5265929153       -1.2800250959
 C        -5.5724983568        9.0132246082       -0.8368146408
 O        -5.7598019527        7.8318300531       -0.9201617570
 C        -6.6918331790        9.9087178811       -0.3204466381
 C        -8.0721247299        9.2239693550       -0.4359529350
 C        -8.9394224598        9.3169060498        0.8757703854
 O        -8.3374932429        9.6478316775        1.9149584240
 C       -10.3900845994        8.7171076611        0.9855924121
 C       -10.1023752056        7.1625144321        1.4233485006
 O       -10.0291275839        6.3393502537        0.5538582173
 C       -10.0629690831        6.7112979816        2.9104989914
 C       -10.6598532411        5.3031519074        3.1071801514
 C       -12.1606822770        5.3092122433        2.6722043003
 O       -12.5597392422        6.2595670442        2.0396285946
 C       -13.0071058540        4.0157136892        3.0528370373
 C       -13.1898164145        3.2343938147        1.6540219052
 O       -12.7159712315        2.1029372763        1.6197079273
 C       -13.9359424590        3.9688019885        0.4965443719
 C       -13.0447574456        4.5672038878       -0.6374079925
 C       -12.6927659635        3.4040038062       -1.6339666700
 O       -13.4485898491        2.4704635848       -1.8852610786
 C       -11.3526716396        3.5473548444       -2.5063544597
 C       -10.2191475915        2.7921648847       -1.7634444241
 O       -10.4013458583        1.7092432336       -1.2450016200
 C        -8.7325500831        3.1951189041       -2.0988557020
 C        -7.8086224792        2.5136504645       -1.0856440214
 C        -7.8730579401        0.9414853656       -1.2370634500
 O        -7.7002161623        0.4809302609       -2.3380120899
 C        -8.0915585121        0.1162143033        0.1076158277
 C        -9.3452470741       -0.6860473314       -0.1934836130
 O       -10.3947532859       -0.3530460966        0.3512988284
 C        -9.3629831080       -1.7404349675       -1.2569541395
 C       -10.7050466553       -2.4223240906       -1.5441421077
 C       -11.1440965369       -3.3225907596       -0.4394753883
 O       -10.4408291894       -3.8955853149        0.3441179199
 C       -12.7406127101       -3.4239676702       -0.1696914231
 C       -13.0442410066       -2.0457549150        0.6124630376
 O       -13.4432770338       -1.0580321001       -0.0378478987
 C       -12.4460690390       -1.9042315978        2.0305650676
 C       -13.4825499347       -3.5659188823       -1.5239880326
 C       -12.9506873303       -4.7052195931        0.6903809233
 C        -6.8820322064       -0.8347900176        0.3503043285
 C        -8.4395113545        0.9294661813        1.4054841463
 C       -11.5740981843        2.9104217931       -3.8900865541
 C       -11.0562243244        5.0913185040       -2.5881139776
 C       -12.3069418365        3.1569747623        4.1202769414
 C       -14.4105531727        4.3411986786        3.5375309358
 C       -11.1006978732        9.7390322818        1.9017778666
 C       -11.1085667037        8.6273474050       -0.4667080359
 C        -3.2823357951        8.2501340149       -1.4142387598
 C        -3.5871014863       10.4338271363       -0.1071526103
 H        -2.1567688138       10.9761901018       -2.4361809891
 H        -3.1545746721       12.2907855267       -3.1373546425
 H        -2.8522443484       10.7370316168       -4.0470684711
 H        -6.7379525503       10.8414020322       -0.9314314550
 H        -6.4951800573       10.1501723837        0.7482074901
 H        -7.8896624612        8.1442508768       -0.6591780344
 H        -8.5464531395        9.5772885987       -1.3687765434
 H       -10.5645244284        7.4681338674        3.5688693542
 H        -9.0330167271        6.6281622060        3.2653732059
 H       -10.5229602553        5.0568763211        4.1166965705
 H       -10.1213853125        4.4741115851        2.5746608632
 H       -14.4995578795        4.7650789702        1.0555590178
 H       -14.5960985572        3.2258603381        0.1006845951
 H       -12.1153100301        4.9588851526       -0.2731675483
 H       -13.5327463402        5.3769935231       -1.1508389387
 H        -8.6017639806        4.2742917243       -2.1177180110
 H        -8.5406316265        2.9212132750       -3.1684399783
 H        -7.9513216589        2.9062004313       -0.0990712340
 H        -6.7651985581        2.8916347443       -1.3004287548
 H        -8.5863329429       -2.4781280103       -1.1521451081
 H        -9.0758726606       -1.2664319562       -2.2155655711
 H       -10.8288031257       -2.9570919758       -2.4649108430
 H       -11.4342021216       -1.5740188377       -1.7457221363
 H       -11.3264298472       -2.0555840861        1.9247441665
 H       -12.8821505346       -2.5947731053        2.7695577393
 H       -12.6159836872       -0.8247799868        2.3774953004
 H       -13.0773603330       -4.4219672470       -2.0902721460
 H       -13.5209712225       -2.7015727908       -2.1363030444
 H       -14.4850004808       -3.8244338135       -1.3352373420
 H       -13.7240956954       -4.7811495294        1.4885888883
 H       -12.0681362523       -5.1673007209        1.1229597663
 H       -13.2188513231       -5.4792640806       -0.0006440863
 H        -6.8972412890       -1.0390182090        1.4582636666
 H        -5.9494472047       -0.3108557086        0.2383386527
 H        -6.9042776682       -1.6571625130       -0.3585741525
 H        -9.2584494661        1.6555182941        1.2579395690
 H        -7.6083710827        1.5601414580        1.7847666863
 H        -8.7234344382        0.2260130762        2.1823569832
 H       -10.6519541252        2.9826088095       -4.4510884517
 H       -12.4712695854        3.3545116574       -4.3610736065
 H       -11.8767730200        1.8488699181       -3.6643211127
 H       -10.8762843183        5.5631484392       -1.6205707248
 H       -11.7771325854        5.5790731930       -3.1888927138
 H       -10.1523139813        5.1417085055       -3.2407919853
 H       -12.8349174534        2.2535713864        4.3876198833
 H       -12.2519533067        3.7726374708        4.9862166024
 H       -11.2886647906        2.8316892398        3.8594338695
 H       -15.0376110420        3.4540719756        3.5283946328
 H       -14.9359480767        5.0009030416        2.9062827610
 H       -14.5707507746        4.7981851933        4.4813598836
 H       -11.0980688672       10.7777891304        1.4229008340
 H       -10.5785625895        9.9723627459        2.7687934569
 H       -12.1134566759        9.5008532640        2.0822016451
 H       -12.1857022276        8.4973311556       -0.2554049379
 H       -10.7492917346        7.7137918118       -0.8875910235
 H       -10.8584787933        9.4700618906       -1.1271348948
 H        -2.2375137687        8.5148790648       -1.4918149734
 H        -3.5429334372        7.6921481119       -2.3146465306
 H        -3.4301459388        7.6542442834       -0.5723119410
 H        -3.7048169804       10.0314339090        0.8907736254
 H        -4.2527005998       11.3213052408        0.1450539834
 H        -2.5705592443       10.9044312603       -0.2074800600
 Na      -12.1970190958        0.7366280351       -0.4795200387
