117

 C        -2.9588153485       11.0395685004       -3.1992236480
 C        -4.1592869086       10.4225169461       -2.4812160481
 O        -5.2302482484       10.5660449501       -3.0125701135
 C        -3.9590665687        9.5771350194       -1.0745912578
 C        -5.3877961360        8.9206390333       -0.7659729309
 O        -5.6239319334        7.7562912148       -1.0323453268
 C        -6.5316300251        9.6880484900       -0.0153675622
 C        -7.8942466153        9.1750345199       -0.3236865623
 C        -8.8626977059        9.1365479706        0.8321904895
 O        -8.5014790428        9.5474238484        1.8956825530
 C       -10.3302769535        8.5041095805        0.6945730463
 C       -10.1169931758        7.0406895766        1.3169962261
 O       -10.0179094169        6.0394257432        0.5817355512
 C       -10.0148697685        6.7913540983        2.8649313005
 C       -10.7692397790        5.5343350522        3.2547246600
 C       -12.2148262672        5.4873600892        2.6609817109
 O       -12.6206271547        6.3798088893        1.9386802190
 C       -13.1608918835        4.1363378603        2.8784352585
 C       -13.2337979928        3.5265927899        1.4557776129
 O       -12.6530217942        2.4789683770        1.3382580506
 C       -13.9590324722        4.2923733907        0.2489481506
 C       -12.9550394603        4.5708100051       -0.9081298973
 C       -12.5488035249        3.4168108692       -1.7830017814
 O       -13.1111610769        2.3496487117       -1.6825728766
 C       -11.2630566875        3.5495110014       -2.6476512110
 C       -10.1490541402        2.9972075108       -1.8787765826
 O       -10.2927025988        2.0144855272       -1.1691991106
 C        -8.6469643798        3.4145196666       -2.0009464837
 C        -7.7212060532        2.5492701095       -1.2417257699
 C        -7.9494267381        1.0600494352       -1.3571423222
 O        -8.0156905245        0.5332056278       -2.4552444548
 C        -8.1673843973        0.1828817451       -0.0445086831
 C        -9.4826035440       -0.7461114139       -0.2334987750
 O       -10.4876614227       -0.4083679256        0.4170862438
 C        -9.3978396615       -1.9536049660       -1.0846356438
 C       -10.7812033689       -2.5831763522       -1.3452346015
 C       -11.3010936405       -3.1825924741        0.0070773933
 O       -10.4612095137       -3.4960929105        0.8498784081
 C       -12.7839495781       -3.4091650978        0.3224343976
 C       -13.3625920253       -2.0881191055        0.8700390279
 O       -13.7457713145       -1.2348115330        0.1151946447
 C       -13.1754344452       -1.7948317213        2.3735237777
 C       -13.4987371010       -3.8869360632       -1.0176870454
 C       -12.8226908254       -4.6434739966        1.2288787716
 C        -6.9650340428       -0.7384723207        0.0179329251
 C        -8.3627965705        1.0833118146        1.1983200679
 C       -11.3824935219        2.6369943848       -4.0089892805
 C       -11.0962416528        5.0002409902       -3.1253015414
 C       -12.4272202701        3.0933802486        3.8316863940
 C       -14.5339212396        4.4143626966        3.4604553839
 C       -11.2372652537        9.5931708351        1.4552713694
 C       -10.8239150137        8.2781168699       -0.7693559111
 C        -2.9466131133        8.4134559718       -1.3690722451
 C        -3.4947556430       10.5046959533        0.0021870985
 H        -3.3426839689       11.7571774809       -3.9891879382
 H        -2.3665161770       10.3150551749       -3.6932585224
 H        -2.2601661133       11.4725260598       -2.4445221573
 H        -6.4568777945       10.8079222153       -0.1141068503
 H        -6.4306441607        9.5108601322        1.0756624521
 H        -7.7863223070        8.1326650640       -0.7219422314
 H        -8.4178474926        9.6619884871       -1.1801648375
 H       -10.4849745198        7.6194776549        3.3627179427
 H        -8.9306775172        6.6237099113        3.0504838807
 H       -10.8757493426        5.4151818345        4.3278891219
 H       -10.2758851259        4.6139716424        2.8953293842
 H       -14.4771696066        5.1441489577        0.5950576712
 H       -14.7547499116        3.5704486984       -0.0693190618
 H       -12.0407885065        5.0072282406       -0.5090382413
 H       -13.3074190694        5.3625524105       -1.5133016303
 H        -8.4341917119        4.4466268183       -1.8389274154
 H        -8.4098917347        3.2768028249       -3.1088775212
 H        -7.7081213847        2.8360999898       -0.1490218964
 H        -6.7365496275        2.7114436154       -1.6683895800
 H        -8.8702424715       -2.8104536844       -0.5938792082
 H        -8.9186037321       -1.7794581903       -2.0016317202
 H       -10.7097587327       -3.2711349500       -2.2130384434
 H       -11.5064838237       -1.8770472188       -1.7548528064
 H       -12.0950603090       -1.9892580066        2.6450070737
 H       -13.8607908278       -2.5155280958        2.9386394180
 H       -13.4237511410       -0.7692342143        2.7100320231
 H       -13.1033864915       -4.7890382566       -1.3959946876
 H       -13.5229902954       -3.1965877712       -1.8446608270
 H       -14.5173704116       -4.0904099679       -0.7077874020
 H       -13.6906420404       -5.2314743757        1.3575592517
 H       -12.2952808082       -4.4870122027        2.1467124659
 H       -12.2035874072       -5.4332403321        0.7662501627
 H        -7.1425339120       -1.4871174190        0.7701646699
 H        -6.0334123023       -0.1659230392        0.0677247462
 H        -6.9855693793       -1.3265512524       -0.9275290364
 H        -9.1906596849        1.7758433397        1.1297837101
 H        -7.4112090119        1.5980334365        1.3616588453
 H        -8.5113687316        0.5109286798        2.1209062093
 H       -11.2424437466        1.5206065903       -3.8859249833
 H       -10.6721042748        3.0976952167       -4.7166528682
 H       -12.3774261212        2.8085506188       -4.4096527631
 H       -11.1338639774        5.6285823543       -2.2666788031
 H       -11.9664984873        5.3087714312       -3.7694815756
 H       -10.1104313936        5.1570342165       -3.5063196630
 H       -12.9951293943        2.2242592450        3.9919673346
 H       -12.2559525817        3.5051413147        4.8303311651
 H       -11.5117843240        2.8150557899        3.3812900357
 H       -15.2045243045        3.6363648115        3.3057503242
 H       -15.0791074245        5.2152592765        3.0089039261
 H       -14.5519377626        4.5336032796        4.5343039979
 H       -11.1681414083       10.5089161537        0.9868820874
 H       -10.9463408454        9.7235329789        2.5178984937
 H       -12.3316444549        9.3355291279        1.4855681246
 H       -11.8967757320        8.3462145570       -0.7429263810
 H       -10.5417778733        7.2515119152       -1.1324089156
 H       -10.5419062561        9.1438467186       -1.3468817550
 H        -1.9850947159        8.8104608976       -1.6369385187
 H        -3.3525591982        7.8987977453       -2.2066579599
 H        -2.8026507308        7.7388871033       -0.5137534777
 H        -3.1280204473        9.8903005148        0.8909456042
 H        -4.1284372541       11.2802515782        0.3536274127
 H        -2.6511871650       11.1769914328       -0.2635031368
 Na      -12.2743795041        0.7223802282       -0.2071866854
