117

 C        -3.1496316052       10.9927110520       -3.1319395215
 C        -4.2202656819       10.3424167702       -2.3122409206
 O        -5.3635963544       10.4062305208       -2.6989872457
 C        -3.8885497580        9.5282737542       -0.9910770193
 C        -5.3058985295        8.7336582756       -0.7522202246
 O        -5.4168942970        7.6329761623       -1.3006084175
 C        -6.3858852500        9.4884733977       -0.0824929353
 C        -7.7903005888        9.0397989699       -0.4409961980
 C        -8.7290896188        9.0608631467        0.7423336213
 O        -8.3502401904        9.1971328213        1.8702843143
 C       -10.1998244763        8.4358367874        0.5104589962
 C       -10.2173734919        7.0172984715        1.1353501878
 O       -10.1141736310        5.9878478786        0.4963077957
 C       -10.1839991888        6.9779186530        2.6514028059
 C       -10.7987496686        5.6860410365        3.1873704872
 C       -12.2716083104        5.6254094244        2.6789004318
 O       -12.8326417691        6.6527822415        2.3333364340
 C       -13.0796055153        4.3139595774        2.8020793362
 C       -13.0708850697        3.5102217785        1.4954694983
 O       -12.6489626434        2.3854310829        1.4380701639
 C       -13.6995878130        4.2667219564        0.2385349395
 C       -12.8737605040        4.6404117065       -1.0121390996
 C       -12.5802691874        3.4754366362       -1.9129340102
 O       -13.2473500920        2.4571774655       -1.9014338013
 C       -11.3425680731        3.4766515496       -2.8044491162
 C       -10.1523444149        2.9348181403       -1.8636046150
 O       -10.4173924767        2.1848408114       -0.9885892771
 C        -8.6367733437        3.3418993785       -2.1969942932
 C        -7.7353256777        2.6268948220       -1.1708351921
 C        -8.0512189143        1.0892182104       -1.4140281229
 O        -8.3008029097        0.5648985382       -2.4640529706
 C        -7.9995781675        0.1012259799       -0.0444310374
 C        -9.3083283735       -0.7833759626       -0.2850136450
 O       -10.2946132136       -0.3749245138        0.3488749203
 C        -9.4145934515       -1.9134051264       -1.2112890397
 C       -10.7883355943       -2.6607049390       -1.1041841012
 C       -11.2755927214       -3.2550526531        0.3016444718
 O       -10.4745050631       -3.5886388253        1.1545132346
 C       -12.8057467366       -3.4401718956        0.5581631743
 C       -13.3656516959       -2.0179275781        0.9300759400
 O       -13.4244821602       -1.0998086278        0.0873771668
 C       -13.6756434865       -1.7810195335        2.4315466314
 C       -13.4592582653       -4.0740086635       -0.7520945198
 C       -13.0092254050       -4.5104810047        1.6936144730
 C        -6.6546154470       -0.6896029406       -0.1064126599
 C        -8.2426565640        0.8054528918        1.3088490233
 C       -11.5278682607        2.5157154376       -4.0059210004
 C       -11.0050615172        5.0195861712       -3.1962613848
 C       -12.5169723515        3.4130221585        3.9164472460
 C       -14.5038888702        4.7741379763        3.1541146509
 C       -11.3813303722        9.3149917753        1.1513814008
 C       -10.5131344205        8.3782162830       -0.9951671566
 C        -2.7290476242        8.4403087188       -1.1864888067
 C        -3.5955692931       10.5203658318        0.0539078715
 H        -2.7622092295       10.2282931394       -3.8571093576
 H        -2.3619316142       11.3811837680       -2.5464940956
 H        -3.5893929746       11.8083471176       -3.6714957167
 H        -6.2485882153       10.5661883070       -0.2535719716
 H        -6.2294408955        9.4099671440        0.9811029253
 H        -7.8339761449        7.9651548679       -0.6239771739
 H        -8.1593859007        9.4613271583       -1.3723457882
 H       -10.7312987475        7.8352987002        3.0395474774
 H        -9.1081764504        6.9872810420        2.8690441391
 H       -10.9287986899        5.8019781310        4.2060682019
 H       -10.2175702930        4.7543366862        3.0176077793
 H       -14.2021580883        5.1348142628        0.6585341240
 H       -14.5342666987        3.6438651109       -0.0853574610
 H       -11.8997909122        5.1246485796       -0.7670985857
 H       -13.3957458372        5.4082927392       -1.6248854449
 H        -8.5025308646        4.3945873557       -2.1798195306
 H        -8.3778493714        3.0201093037       -3.2365991887
 H        -7.9186247304        2.8799992777       -0.1425395113
 H        -6.7452294324        2.8495125395       -1.5478191569
 H        -8.5870745415       -2.6543045631       -1.0467565133
 H        -9.3860661793       -1.5436385912       -2.2571635917
 H       -10.7900824140       -3.5495206276       -1.7153693869
 H       -11.5009209150       -1.9715240083       -1.6122923063
 H       -13.4767748593       -0.7418115047        2.6382003192
 H       -13.2490391782       -2.4725445608        3.1215885310
 H       -14.7175273126       -1.8534690332        2.5742137956
 H       -12.8195974078       -4.9419703668       -1.0918943905
 H       -13.6031272357       -3.4312360586       -1.6636810056
 H       -14.4172025805       -4.4737968271       -0.5057740607
 H       -14.0206764970       -4.5033523117        2.1444594270
 H       -12.2710429102       -4.4999231003        2.4775588373
 H       -13.0398684801       -5.5175869407        1.3105785118
 H        -6.6211356054       -1.4607835085        0.7126968293
 H        -5.8911247014        0.0511940138       -0.0467514542
 H        -6.5284429593       -1.3087299906       -0.9952011968
 H        -9.1243252006        1.4111381428        1.2049029918
 H        -7.3639899856        1.4395879492        1.5269325795
 H        -8.3878283149        0.1817714144        2.1739541175
 H       -12.4620009330        1.9543657149       -3.9392615162
 H       -10.7284863530        1.8267844631       -4.0040821201
 H       -11.5747079038        3.0755736634       -4.9695708933
 H       -10.5807400020        5.6044210081       -2.4687330606
 H       -11.9626839328        5.5189386944       -3.5278609200
 H       -10.2689632049        5.0478316841       -4.0026746083
 H       -13.0193559139        2.4813271770        4.1038803186
 H       -12.5946085522        4.0028422523        4.8772892688
 H       -11.4331745180        3.2781715257        3.7303345940
 H       -15.2323526760        3.9503705067        3.0813462040
 H       -14.9278614768        5.5450102805        2.5235047666
 H       -14.6596541477        5.1355961876        4.2277106040
 H       -11.8136672467        9.9420423911        0.4008834948
 H       -11.0479824619        9.8792865127        2.0243837278
 H       -12.2317876681        8.6897100841        1.6169942464
 H       -11.3909411669        7.7657971698       -1.1136217201
 H        -9.6822418012        7.8890231526       -1.4863236041
 H       -10.8057107828        9.3416559409       -1.3343214257
 H        -1.8768775619        8.7623607192       -1.8133169288
 H        -3.3057871398        7.6574246025       -1.7067143003
 H        -2.3840640385        8.0265644382       -0.2402374189
 H        -3.6332411947       10.1821559658        1.0687957009
 H        -4.1986121217       11.3709393167       -0.0826936163
 H        -2.5845155127       10.9110306555        0.0850567440
 Na      -12.4687230950        0.8825460546       -0.4055671449
