117

 C        -3.1251038542       10.8562796974       -3.1668478410
 C        -4.2482317744       10.3413094940       -2.3556174564
 O        -5.3925312131       10.4892973592       -2.7431170107
 C        -3.8766791758        9.4704834679       -1.0774404994
 C        -5.1166055387        8.6389945860       -0.8143734366
 O        -5.3317157463        7.4759283524       -1.1111013129
 C        -6.2995258371        9.3980716042       -0.0010336942
 C        -7.6903123667        8.9691432390       -0.4655425219
 C        -8.7432618591        8.9030621760        0.6838800410
 O        -8.4791101895        9.1751109022        1.8613260145
 C       -10.1388870176        8.4523733284        0.3293617516
 C       -10.3131024494        7.0482309968        1.0306361843
 O       -10.3217805585        6.0517304633        0.3279997644
 C       -10.0556214109        6.8888488444        2.5049429361
 C       -10.8680315558        5.7117791452        3.0466950735
 C       -12.3613644581        5.8199788643        2.7241065597
 O       -12.8997298151        6.8089905303        2.3330653600
 C       -13.2131929381        4.3763578689        2.9059454008
 C       -13.2182067663        3.6851974867        1.5247667523
 O       -12.5368796959        2.6633840816        1.3801511076
 C       -13.8384208259        4.2684466666        0.2676937087
 C       -12.6817806312        4.5344376299       -0.7467018543
 C       -12.5691356277        3.4834250977       -1.8930060881
 O       -13.3912943245        2.6025084504       -1.9980685092
 C       -11.3222824753        3.4904492158       -2.8219588161
 C       -10.2100302338        2.9194104358       -1.8584316410
 O       -10.5661249174        2.1890497146       -0.9107508070
 C        -8.7871246395        3.3283435015       -2.1114664191
 C        -7.7952811179        2.5855826863       -1.1897943179
 C        -8.1769330066        0.9451907045       -1.3787188169
 O        -8.2882235313        0.4308995458       -2.4707835190
 C        -8.1152591396        0.0443919080       -0.0795597293
 C        -9.4530620842       -0.7084207474       -0.0693697347
 O       -10.4573326576       -0.3652810707        0.4833389883
 C        -9.4146716622       -2.0651511232       -0.9128889409
 C       -10.7923208596       -2.7759478214       -1.0201494972
 C       -11.1514300674       -3.2899529393        0.3608430018
 O       -10.3785809022       -3.4757206815        1.2549979563
 C       -12.7573345416       -3.5048491869        0.6166689082
 C       -13.1975066857       -1.9730812446        0.9316751719
 O       -13.0488867242       -1.1852515065        0.0187581968
 C       -13.9461668530       -1.5907391850        2.2499258833
 C       -13.4310189663       -3.9879119231       -0.6042492629
 C       -12.9460761113       -4.3117292613        1.8532625904
 C        -6.8437325305       -0.8944972300       -0.3405003241
 C        -7.8102145077        0.8846555569        1.2131964913
 C       -11.4826239030        2.5558671214       -4.0872509019
 C       -10.8950083179        4.7938519937       -3.3546806940
 C       -12.6282226582        3.4039073647        3.9624401772
 C       -14.6984855764        4.6345691796        3.2472607432
 C       -11.1330315552        9.3967422708        0.9150060237
 C       -10.4102777757        8.2240821351       -1.1753726977
 C        -2.5484804674        8.6834682286       -1.2458438111
 C        -3.7150640280       10.3180622774        0.2586014665
 H        -2.2344279212       10.2969838293       -3.0110263854
 H        -2.9693175163       11.9727046315       -2.9413653267
 H        -3.4134431593       10.8039330773       -4.2277179777
 H        -6.2627835213       10.4901014696        0.0241086590
 H        -6.1460508558        9.1372051978        1.0943769547
 H        -7.6282284853        7.9427164363       -0.9308633129
 H        -8.0465972988        9.6315755237       -1.2900038886
 H       -10.3348373833        7.8287270276        3.0032940038
 H        -9.0049699439        6.6143442414        2.6481943387
 H       -10.6942464731        5.6522595288        4.1787049996
 H       -10.5975447681        4.7829904912        2.6213915233
 H       -14.4429329223        5.1400625621        0.5547756429
 H       -14.5697430514        3.5811483715       -0.1641560423
 H       -11.7189711428        4.5400326783       -0.2782099707
 H       -12.7733208909        5.5337636465       -1.1441720023
 H        -8.7382462431        4.4706815239       -2.0988393118
 H        -8.6866606936        3.0030676320       -3.1291398226
 H        -8.0507706007        2.8199440451       -0.1505523773
 H        -6.7737856646        2.7791008671       -1.5775071696
 H        -8.9110414942       -2.7719952357       -0.3010055870
 H        -8.9343516273       -1.9599828579       -1.8803785942
 H       -10.8552893701       -3.7168537996       -1.6470122949
 H       -11.5247268758       -2.0468141482       -1.3562002318
 H       -14.7546461793       -0.8365596214        2.0906753311
 H       -13.1464189022       -1.2387589708        2.9269888938
 H       -14.3071638708       -2.4974307265        2.8434327637
 H       -13.2170662288       -4.9837312675       -0.9415070863
 H       -13.2384020072       -3.2886853815       -1.3760836188
 H       -14.5252029184       -3.9085947397       -0.4851633759
 H       -14.0117492404       -4.4181654679        2.0713881301
 H       -12.5261733122       -3.8127812073        2.7334935001
 H       -12.5212838377       -5.3221851720        1.7952871101
 H        -6.9058447166       -1.8870445889        0.1346282400
 H        -5.9306218553       -0.3332423827        0.0099024842
 H        -6.7556717732       -1.1097616614       -1.4085457642
 H        -8.6756430718        1.5109784817        1.4206969110
 H        -6.9285093478        1.4715069160        1.1426940535
 H        -7.7421145647        0.1919991664        2.0442312609
 H       -12.5109498101        2.1490967953       -4.0851343627
 H       -10.7733481213        1.6801578542       -4.1307927116
 H       -11.4681634909        3.1672296351       -5.0053206536
 H       -10.7332489932        5.5891316966       -2.5515151422
 H       -11.5951383443        5.1348104649       -4.0459165830
 H        -9.9549652244        4.7282169432       -3.9258270581
 H       -13.4069166117        2.6598565511        4.1131131095
 H       -12.4167646577        3.8322194288        4.8780176562
 H       -11.7628373755        2.9105301256        3.6125805642
 H       -15.3848312444        3.7902910638        3.1853963020
 H       -15.1076759497        5.3781904227        2.5810569376
 H       -14.8397414219        5.0939577868        4.1563118956
 H       -11.2583708147       10.2755603796        0.1933805760
 H       -10.8275915117        9.7499682657        1.8909262507
 H       -12.0846155044        8.9801485646        1.0469231281
 H       -11.4938777631        8.1713625219       -1.3472200476
 H        -9.8875153307        7.3325914831       -1.4477677809
 H       -10.0060995699        9.1183550483       -1.6980616301
 H        -1.7785311623        9.4486566547       -1.2808369987
 H        -2.5167205474        8.0171683199       -2.1105679329
 H        -2.4081509487        8.1015060302       -0.3274343976
 H        -3.9431376358        9.7373397653        1.1404655593
 H        -4.4239332717       11.2019983456        0.2935957096
 H        -2.7187005457       10.5747935797        0.5563679063
 Na      -12.4796838715        1.0662745257       -0.3746200510
