117

 C        -3.0360333147       10.8673108203       -3.2034387807
 C        -4.2437737287       10.3427721358       -2.3580807641
 O        -5.3929257124       10.5500640785       -2.6477837931
 C        -3.8840178042        9.5170961642       -0.9748183446
 C        -5.1603966922        8.5773795144       -0.6784747165
 O        -5.1654906350        7.4128120366       -1.0523870080
 C        -6.2621627472        9.2436745757        0.0698459501
 C        -7.6127459284        8.9094396967       -0.4729893857
 C        -8.6870134285        8.8921112927        0.6012062934
 O        -8.4296428158        9.2233376928        1.7255929586
 C       -10.1640855928        8.3946807264        0.2406283803
 C       -10.2952370834        6.9170368021        0.8774410049
 O       -10.4471992405        5.9124255142        0.2423510277
 C       -10.1665986835        6.8616179662        2.4289695818
 C       -10.9536216829        5.6302265841        2.9693499794
 C       -12.4500778232        5.7016148571        2.7057233825
 O       -12.9569259940        6.7370728618        2.3719365283
 C       -13.3109403978        4.4072343425        2.8975877975
 C       -13.1935225418        3.7170044226        1.5366591809
 O       -12.5084845018        2.7104459486        1.4157865014
 C       -13.8002843763        4.3979682819        0.2905039199
 C       -12.7172465591        4.5439355037       -0.7959754647
 C       -12.6768432504        3.4999966592       -1.9386486278
 O       -13.5360511996        2.6470168402       -2.0889854473
 C       -11.3685299050        3.6008736336       -2.8053496409
 C       -10.2326768607        2.9258873755       -1.8786742925
 O       -10.4535882886        2.1546334239       -0.9970276560
 C        -8.7972914855        3.2953744176       -2.1607830709
 C        -7.8899244960        2.4478183647       -1.2673607570
 C        -8.0982505083        0.9074701779       -1.3630356916
 O        -8.3404117993        0.4482536284       -2.4231064315
 C        -8.0457227231        0.0302555799       -0.1452698168
 C        -9.4291624028       -0.7151290678       -0.0436013084
 O       -10.4424539846       -0.2937580258        0.4885298377
 C        -9.3304871398       -2.1044541006       -0.6986140797
 C       -10.6910737410       -2.7528494779       -0.9371341202
 C       -11.1623540660       -3.2831505691        0.4317670107
 O       -10.3218512756       -3.4516968583        1.2913943903
 C       -12.7416933759       -3.4164750073        0.7694895527
 C       -13.1702188186       -1.9816408112        0.9012296076
 O       -12.9898160037       -1.2087738251       -0.0776336795
 C       -13.9881917261       -1.4561486708        2.0346176372
 C       -13.5608500138       -3.8705645773       -0.4773409874
 C       -12.8839842786       -4.3972170632        2.0107685951
 C        -7.0042311547       -1.0330155157       -0.3776772907
 C        -7.7055422272        0.7482976331        1.2411845311
 C       -11.4992859278        2.4031151853       -3.9602946455
 C       -10.9274938208        4.9548971141       -3.3690383575
 C       -12.6484565445        3.5535046096        3.9802563280
 C       -14.7805467486        4.7161580435        3.2530753497
 C       -11.0837481606        9.5480783237        0.8904828011
 C       -10.4517554329        8.1828910614       -1.3138079713
 C        -2.6183707165        8.6328851089       -1.2511375522
 C        -3.5969043479       10.4088363485        0.1588543327
 H        -2.0938867747       10.7082959359       -2.6288339396
 H        -3.2150165431       11.9571782231       -3.2794190818
 H        -2.9179512946       10.4593664081       -4.1774754108
 H        -6.0806214990       10.2993037946       -0.0830971168
 H        -6.1571382512        9.1443425371        1.1655183673
 H        -7.5340888661        7.8738873224       -0.8246550008
 H        -7.8720786476        9.4974930951       -1.3603780510
 H       -10.6074744280        7.7736569728        2.8646015710
 H        -9.1514883627        6.7465140948        2.7751848957
 H       -10.8125683100        5.6489381811        4.0790931713
 H       -10.6107926177        4.6133810731        2.5811843647
 H       -14.1815812152        5.4054552923        0.6475787434
 H       -14.7139276785        3.9139400171       -0.0094521264
 H       -11.7591925128        4.3247100703       -0.3172338485
 H       -12.6234868093        5.6123185214       -1.0897042944
 H        -8.7279697860        4.3501791667       -1.7711303282
 H        -8.6290082257        3.2896879768       -3.2213289617
 H        -8.1217667529        2.7181530128       -0.2659484448
 H        -6.8330566953        2.5704664941       -1.6265747479
 H        -8.8091207053       -2.8505306776       -0.2000974535
 H        -8.9412732693       -1.8917168197       -1.7072771223
 H       -10.6025627700       -3.5698527753       -1.6516358125
 H       -11.3889348859       -1.9517520710       -1.2896131509
 H       -14.9410812735       -1.0626691891        1.5602146006
 H       -13.4324075780       -0.6044970609        2.4799770119
 H       -14.1883626203       -2.1469375525        2.8803847846
 H       -13.2699863485       -4.9117663588       -0.7560225454
 H       -13.3983297018       -3.2082852020       -1.3194599897
 H       -14.5619443236       -3.8635570852       -0.3160819282
 H       -13.9341435380       -4.8419486085        1.9188631148
 H       -12.9188556184       -3.9709836751        3.0318731527
 H       -12.1615170705       -5.2094018904        1.9515300745
 H        -7.0185165179       -1.8699848619        0.4506114045
 H        -6.0606633989       -0.5774174387       -0.3017290247
 H        -7.0916176451       -1.4800357358       -1.3291428914
 H        -8.6531288250        1.2161747574        1.5496223522
 H        -6.9094972087        1.5229500692        1.2478291360
 H        -7.5319842618       -0.0366932214        1.9641147710
 H       -12.4521982158        1.9233810849       -3.8590917145
 H       -10.7644309543        1.6583064622       -3.9288423397
 H       -11.5597751363        2.9210139848       -4.9851986581
 H       -10.7942546336        5.6784974391       -2.5992610904
 H       -11.5654406835        5.3587610525       -4.1973156243
 H        -9.9156212889        4.8300191695       -3.8993150290
 H       -13.3502552954        2.7588059365        4.1122899040
 H       -12.4513464134        4.0492807832        4.9275978528
 H       -11.7224619534        3.0907080477        3.6387637756
 H       -15.4944767854        3.8918251222        3.2442846980
 H       -15.1927720034        5.4708944095        2.6710084852
 H       -14.7883837586        5.2236471434        4.2296337907
 H       -10.8086799316       10.4738670053        0.3909215740
 H       -10.9704684266        9.6745502602        1.9085539748
 H       -12.1449521980        9.3993962867        0.6542986929
 H       -11.5350136604        8.3607212259       -1.5196005157
 H       -10.0771652426        7.2318923586       -1.6674684085
 H        -9.8796253102        9.0116391047       -1.7488713169
 H        -1.7332342416        9.1780941720       -0.9624237839
 H        -2.6190465836        8.3987276097       -2.3213486343
 H        -2.6917796134        7.7217156989       -0.7472438317
 H        -3.4273243763        9.8881782447        1.1175472100
 H        -4.4228912892       11.1331181332        0.3781719829
 H        -2.6031128862       10.9031078796        0.0847695519
 Na      -12.4131602684        1.1351901258       -0.2249599350
