117

 C        -3.0326373004       10.9182073897       -3.1365853842
 C        -4.1748126800       10.3003922104       -2.2951621185
 O        -5.3488544997       10.6560863033       -2.3522022988
 C        -3.6907013644        9.4318761069       -1.0775093940
 C        -4.9104729379        8.5932407204       -0.5679937496
 O        -4.9387893351        7.4079077757       -0.8658734178
 C        -6.2350380619        9.1778201757        0.0974183850
 C        -7.5275638174        8.5320987230       -0.5865630473
 C        -8.7008906766        8.7781848817        0.4147938989
 O        -8.4524340853        9.1792771611        1.5433156669
 C       -10.2317009571        8.4194269764        0.1145364781
 C       -10.3610812547        7.0166599774        0.8082016554
 O       -10.3475105493        5.9797470640        0.1040641416
 C       -10.3992015940        6.9496005072        2.2986790434
 C       -11.0444367265        5.6783625270        2.7851150485
 C       -12.5522912314        5.7537792974        2.7180126510
 O       -13.0783234916        6.7715993836        2.3593119607
 C       -13.4043716124        4.4598328967        2.9929581891
 C       -13.2166297489        3.7374819513        1.5706843705
 O       -12.6506768564        2.6467234065        1.5150072078
 C       -13.8233020613        4.4331716729        0.3051103431
 C       -12.8249916423        4.6805459574       -0.8800661348
 C       -12.6811321842        3.4953198616       -1.8480763365
 O       -13.6392626179        2.7752475555       -2.0346932013
 C       -11.3909752748        3.4402836898       -2.8024605107
 C       -10.2373556438        2.9095054976       -1.9485842515
 O       -10.4522784891        2.0547368108       -1.0604652342
 C        -8.7473670805        3.1993659135       -2.1899011225
 C        -7.8065862088        2.3973977655       -1.2360402609
 C        -8.0214879225        0.8887454868       -1.3334560093
 O        -8.4350972120        0.4497319574       -2.3926959315
 C        -7.8158106735       -0.0367829366       -0.1465489607
 C        -9.2522502194       -0.8188924101       -0.0707563389
 O       -10.1568034176       -0.2081422264        0.4385884728
 C        -9.3847401867       -2.1158321031       -0.9119229413
 C       -10.7812355294       -2.9126148511       -0.8146237551
 C       -11.2814466160       -3.2914051370        0.6056964509
 O       -10.5038736925       -3.5946667409        1.4578955795
 C       -12.8509302210       -3.3308704110        0.8631009788
 C       -13.2778610739       -1.7965419849        0.8422246206
 O       -12.9958043009       -1.0838333860       -0.0718061093
 C       -14.0806036125       -1.1770400232        1.9459752119
 C       -13.4827948015       -4.0824469348       -0.3052364383
 C       -13.0660888605       -4.0771094141        2.1888676043
 C        -6.5576218674       -0.9137350434       -0.3206397505
 C        -7.7069354090        0.6326270356        1.2308191564
 C       -11.5863425392        2.3881644047       -3.9705405354
 C       -11.2668436592        4.8560060464       -3.4352110843
 C       -12.9212389770        3.5185949247        4.1006530942
 C       -14.8319355763        4.8848393606        3.2485507384
 C       -11.1333637740        9.4435212816        0.7188430921
 C       -10.3869633087        8.3293628126       -1.4358477950
 C        -2.5481129077        8.4736385853       -1.3624862146
 C        -3.2825182834       10.5599363548       -0.0143141051
 H        -2.4320853938       11.5545905554       -2.5633069659
 H        -3.3866135114       11.4573035887       -4.0249825471
 H        -2.3710710989       10.0760247965       -3.3862220348
 H        -6.3624338788       10.2542209302        0.1989415616
 H        -6.2151604203        8.8281082175        1.1158925619
 H        -7.3335629468        7.4845890919       -0.8093119922
 H        -7.8552161613        9.0276073232       -1.4927550955
 H       -10.8531210134        7.8559424806        2.7015300915
 H        -9.3264137978        6.9344938985        2.6465758224
 H       -10.7666013409        5.4871989709        3.8196525447
 H       -10.7578662426        4.8530031458        2.1962750614
 H       -14.4053621691        5.2815409574        0.5409632680
 H       -14.5968627565        3.6786452807        0.0162614662
 H       -11.8514102326        5.1254014070       -0.5660595094
 H       -13.3439822628        5.4683434950       -1.4544177700
 H        -8.6015893966        4.2424249554       -1.9883094207
 H        -8.6206132262        2.9909802910       -3.2672032009
 H        -8.0536290752        2.7242760408       -0.2024715263
 H        -6.7911426467        2.4986913727       -1.5219731295
 H        -8.6355963467       -2.9326837562       -0.6592470555
 H        -9.2760125785       -1.8515941405       -1.9649872747
 H       -10.6280032606       -3.8294586649       -1.4121033837
 H       -11.5380316904       -2.2647737260       -1.1816507351
 H       -15.0291614668       -1.6381590131        1.8908269068
 H       -14.1914606885       -0.1146637701        1.8045238782
 H       -13.6748710444       -1.4183269717        2.9195852359
 H       -13.0209853622       -5.0426143515       -0.3704880542
 H       -13.3175537190       -3.5200861179       -1.2267185206
 H       -14.6256387593       -4.2821186901       -0.2251408983
 H       -13.9538743080       -4.6542375810        2.3490767334
 H       -13.0368650364       -3.3884460498        3.0345463881
 H       -12.1311905825       -4.6772513679        2.2457054036
 H        -6.4996674364       -1.5344174878        0.5017570396
 H        -5.5453275682       -0.4502581604       -0.3780796340
 H        -6.6976682187       -1.4984053792       -1.2385050744
 H        -8.5375824905        1.2995663310        1.4983990944
 H        -6.7959885343        1.2223208831        1.2574518616
 H        -7.6183355385       -0.2224470978        1.9370726803
 H       -12.0614775768        1.4473063740       -3.7234760064
 H       -10.5518190174        2.0970286117       -4.2899951872
 H       -12.0353571376        2.8203385533       -4.8003453215
 H       -10.9467903649        5.6102044518       -2.6477644519
 H       -12.1656599590        5.1783022968       -3.8703113512
 H       -10.6237675804        4.8988905334       -4.2649869508
 H       -13.5489917158        2.5742687514        4.2233191239
 H       -12.9540281504        4.1429057567        5.0076469715
 H       -11.8578355198        3.2081475908        4.0007079044
 H       -15.4222393370        3.9443844886        3.1643653049
 H       -15.3072818063        5.5940935005        2.4834793300
 H       -15.0567775525        5.4129511670        4.1646473825
 H       -10.7778538828       10.4884115662        0.4873024516
 H       -11.0906466923        9.4523150417        1.8470688257
 H       -12.1294605038        9.3129076990        0.3648012787
 H       -11.3440321151        7.8818836584       -1.5942934796
 H        -9.6225820442        7.6400610641       -1.8218122771
 H       -10.2733334346        9.3125701909       -1.8927711121
 H        -1.6819504324        8.8975015318       -0.8850165544
 H        -2.3766276517        8.3354941306       -2.4037406525
 H        -2.8024499281        7.4670120437       -0.9586644593
 H        -2.6395929230       10.2334521665        0.8112845656
 H        -4.0948527856       11.0563071551        0.4931476649
 H        -2.6509845616       11.2585210880       -0.5437189830
 Na      -12.2480830134        1.0466453361       -0.0463540711
