117

 C        -3.1271396476       10.9037286697       -3.2195425287
 C        -4.1398093002       10.3305379555       -2.2294221162
 O        -5.2906641658       10.6985093349       -2.3293767581
 C        -3.6351833954        9.4186916848       -1.0542386678
 C        -4.9059231658        8.5121740184       -0.6407029068
 O        -4.8418401117        7.2955858457       -0.7628201133
 C        -6.1322029313        9.1908820686        0.0203896254
 C        -7.4113293431        8.5481400370       -0.4576229985
 C        -8.6340408862        8.8628051611        0.4323851799
 O        -8.4717730976        9.1542909365        1.5773232893
 C       -10.1944621310        8.4431990659        0.0063650256
 C       -10.3112302291        7.0391555863        0.7146080465
 O       -10.2055506861        6.0200002074        0.0678420210
 C       -10.3419547265        6.9931620581        2.2373269536
 C       -10.9983857348        5.7184171898        2.7653059323
 C       -12.5847061239        5.8328707039        2.7092277308
 O       -13.1518500586        6.8393735826        2.3761245034
 C       -13.4694675118        4.4788102698        2.9148325243
 C       -13.3425218631        3.6954975545        1.5677294330
 O       -12.7392445878        2.6189749168        1.5990698013
 C       -13.9396672346        4.3208299083        0.3257784733
 C       -12.9449700325        4.6786275531       -0.8478428333
 C       -12.7455120701        3.4911942109       -1.8498079450
 O       -13.5795915968        2.6305297511       -1.9227432928
 C       -11.4270381916        3.4097348886       -2.7570566744
 C       -10.2007740970        2.7771846391       -1.9312383845
 O       -10.4770366259        2.0499368510       -0.9874826890
 C        -8.7652110771        3.1625716695       -2.2356819391
 C        -7.8060654722        2.5089259535       -1.2248125404
 C        -8.0132618936        0.8492234337       -1.3505854532
 O        -8.4040144833        0.3976329341       -2.3859457283
 C        -7.7745186838       -0.0847280456       -0.1185022605
 C        -9.1406627514       -0.8330515796       -0.1779087519
 O       -10.0757743833       -0.3917421689        0.4255316313
 C        -9.3282716196       -2.1259783919       -0.9691329174
 C       -10.7508078902       -2.8254976807       -0.8348501639
 C       -11.2316770205       -3.1804334946        0.6087449487
 O       -10.5661100874       -3.6337353409        1.5177007083
 C       -12.8491342934       -3.2523969059        0.9363344322
 C       -13.3549819047       -1.8127248801        0.8445986030
 O       -13.0214646374       -1.1459048536       -0.1385947737
 C       -14.1678340265       -1.1768053046        2.0515183309
 C       -13.4591526249       -4.1449667802       -0.2609920769
 C       -13.3178274475       -3.7786791836        2.3644061723
 C        -6.5141715489       -0.8743342315       -0.4185668854
 C        -7.6677371760        0.7244306483        1.2486464945
 C       -11.7170899783        2.4196360583       -3.9382837383
 C       -11.2570914022        4.8126425990       -3.4415511811
 C       -13.0310897119        3.5570813486        4.0431802854
 C       -14.9479220846        4.8614331057        3.1763459200
 C       -11.1995650048        9.5479040544        0.6217250438
 C       -10.3870092114        8.3156341762       -1.5823820977
 C        -2.4063383773        8.5665222948       -1.3758608786
 C        -3.1926522228       10.3966345619        0.0404130328
 H        -2.8284294578       11.8803314202       -2.8290753886
 H        -3.6313836164       11.1171670175       -4.2067599381
 H        -2.2378380919       10.3363937723       -3.2807729332
 H        -6.2179644031       10.2223230417       -0.2947880604
 H        -5.9871503234        9.2350588712        1.1327175865
 H        -7.3593961186        7.4328995197       -0.3549232997
 H        -7.5956285224        8.7601914008       -1.5229659512
 H       -10.9266400375        7.8846485134        2.5654771219
 H        -9.3245491366        7.1808321416        2.6112772711
 H       -10.7503555103        5.4473560741        3.8084674295
 H       -10.7872314879        4.9119406010        2.1527296710
 H       -14.4478465037        5.2392305699        0.6646616791
 H       -14.7703430058        3.6766373317        0.0804840587
 H       -12.0021480184        4.9378553334       -0.4132251915
 H       -13.3583906699        5.5727567481       -1.2869082277
 H        -8.7519348992        4.2954121139       -2.1515533936
 H        -8.5986360641        2.8967753385       -3.2524700060
 H        -8.1264172381        2.8322890766       -0.2463274577
 H        -6.7354440659        2.7524124588       -1.4624355533
 H        -8.6241234624       -2.8824431706       -0.6701583711
 H        -9.2245464407       -2.0197976590       -2.0817175145
 H       -10.6085908304       -3.7968203165       -1.3590949356
 H       -11.5027186593       -2.1702660627       -1.2689827154
 H       -14.9331090382       -1.7995754411        2.5446638828
 H       -14.5759246688       -0.2620381702        1.7074681567
 H       -13.3878245929       -0.9787548462        2.8085674023
 H       -12.9434299190       -5.1519754018       -0.3225854191
 H       -13.2579796077       -3.5837375792       -1.1856626079
 H       -14.5120436945       -4.3343605383       -0.2250208024
 H       -14.4050384666       -3.8538128577        2.4788086744
 H       -13.0114414074       -3.1118924915        3.1446758015
 H       -12.8112335958       -4.6855418756        2.5174822158
 H        -6.2899996163       -1.6535892601        0.4143713773
 H        -5.6531830967       -0.2138859378       -0.2726155993
 H        -6.4473313217       -1.2218795814       -1.4122941422
 H        -8.4697909319        1.4566824119        1.2653055518
 H        -6.7519318959        1.2672482579        1.2886603076
 H        -7.7507049271        0.0493241094        2.0817835185
 H       -11.7271042359        1.3929254080       -3.5815110032
 H       -10.8581212700        2.4215542757       -4.6098919066
 H       -12.6495924838        2.6324343635       -4.5929630135
 H       -10.8469322905        5.6265631207       -2.8717078461
 H       -12.1161153105        5.1534228924       -3.9154070723
 H       -10.6340949358        4.6077541536       -4.3022410895
 H       -13.6994303889        2.6747331709        4.0203775259
 H       -13.1446024783        4.0882613217        4.9613269166
 H       -12.0100423941        3.1718563073        3.9977966262
 H       -15.6472714489        3.9750508172        3.1614599117
 H       -15.3479252327        5.5714315471        2.4779302552
 H       -15.0716508797        5.3996525865        4.1072094626
 H       -11.1841016254       10.5972615815        0.1352685121
 H       -10.9263093801        9.7815973143        1.6323569838
 H       -12.2116558927        9.1138063153        0.5452911270
 H       -11.2448141310        7.6519040132       -1.6347765218
 H        -9.5708333609        7.8566390529       -2.0763693261
 H       -10.5555673960        9.2933285886       -2.0341274618
 H        -1.4981754732        9.1543737113       -1.1767905877
 H        -2.4662336893        8.3234500720       -2.4594183522
 H        -2.4438884319        7.6195700029       -0.8395941504
 H        -2.7643075866        9.8877380383        0.8647905088
 H        -3.9987372602       10.9781237648        0.5298915224
 H        -2.4597802870       11.0584065957       -0.3985047443
 Na      -12.1493583115        1.0005983673       -0.0458734931
