117

 C        -3.0042852181       10.8362859759       -3.2398926682
 C        -4.1359659692       10.3627252484       -2.2126601842
 O        -5.2023449017       10.9147727490       -2.1934773586
 C        -3.6108580557        9.3945213934       -1.0166227594
 C        -4.7531140627        8.4331738983       -0.5111005316
 O        -4.7378258214        7.2320923421       -0.7063614516
 C        -5.9021280050        9.0578972667        0.1621257728
 C        -7.1754664810        8.3450448762       -0.3152067400
 C        -8.3632004095        8.7879151064        0.4558503958
 O        -8.3293666102        9.6305690355        1.3079659957
 C        -9.7762149744        8.4023763004       -0.1573311391
 C       -10.1501006308        7.0363293836        0.5433752899
 O       -10.2687662094        6.0084332170       -0.0658266235
 C       -10.5414906735        7.0305292898        2.0933236788
 C       -11.2868574056        5.7092574051        2.4270372263
 C       -12.8580751128        5.8955927718        2.4241724445
 O       -13.3538570665        7.0021519204        2.2634508039
 C       -13.6629697468        4.6152947290        2.7505487911
 C       -13.5606845160        3.6761779118        1.5299104678
 O       -13.0673580112        2.5577401648        1.6501127566
 C       -14.1528196746        4.1544328205        0.2033798450
 C       -13.1591682636        4.4274709203       -0.9308909130
 C       -12.7148599121        3.0576141467       -1.6017682410
 O       -13.2512868103        2.0116614962       -1.2454695218
 C       -11.5559140107        3.2750449900       -2.6234336361
 C       -10.1800618630        2.7576723292       -1.7958293985
 O       -10.3681456842        1.9983064141       -0.8881900571
 C        -8.8405782399        3.1399416977       -2.3336644632
 C        -7.7955428384        2.4066314494       -1.5263616872
 C        -8.0314105573        0.8807382232       -1.5737072323
 O        -8.1898440826        0.3589189574       -2.6238933652
 C        -7.9716688954       -0.0523277534       -0.2014796804
 C        -9.2826261463       -0.7386910268        0.0751620357
 O       -10.2282932528       -0.2290551418        0.6507319507
 C        -9.3064683907       -2.2009510495       -0.4068173857
 C       -10.6662336863       -2.8326734853       -0.6580364424
 C       -11.2989204735       -3.0607771431        0.7518274160
 O       -10.5936794482       -3.2561423436        1.6983747486
 C       -12.9244094396       -3.1189669716        1.0070793615
 C       -13.2932709100       -1.6773402845        0.7394942524
 O       -13.2519848118       -1.1674860563       -0.3941559920
 C       -13.8755821801       -0.7387467563        1.9018663042
 C       -13.6111405821       -3.9425314493       -0.0696493874
 C       -13.1623289734       -3.4938288788        2.4975957655
 C        -6.8370705553       -1.0434474551       -0.5731575803
 C        -7.6241398220        0.8489706422        1.0059768804
 C       -11.7057720861        2.3522925117       -3.8412887202
 C       -11.4924495369        4.6995036407       -3.2127759270
 C       -13.0404468135        3.8387458541        3.9749285154
 C       -15.1776426629        4.9825132221        3.0657257141
 C       -10.8708049197        9.4485888759        0.2993258094
 C        -9.8580626104        8.3172651237       -1.6815521095
 C        -2.4502236468        8.4466496637       -1.5381159948
 C        -3.0491497890       10.3290229676        0.0691182434
 H        -3.5000230554       11.2931609506       -4.1112341918
 H        -2.3414745408       10.0626830553       -3.6188158182
 H        -2.4557253391       11.5466928575       -2.6914563004
 H        -5.8638511066       10.0824994261       -0.1025224872
 H        -5.9124827406        8.9389911103        1.2519527319
 H        -7.0104176669        7.2833241202       -0.1452124632
 H        -7.4281614114        8.4938688955       -1.3493159121
 H       -11.1750592654        7.9262571584        2.2946255823
 H        -9.7172492845        7.2878532952        2.7799715899
 H       -11.0554197360        5.3344104789        3.4278396428
 H       -11.1021590585        4.9343075581        1.7680188645
 H       -14.7841757733        5.0109822011        0.5414294653
 H       -14.8425509624        3.4446997155       -0.2122585037
 H       -12.2912685451        4.9768192428       -0.5290768942
 H       -13.7178890346        5.0451547480       -1.6663449249
 H        -8.7122356404        4.2620505545       -2.3056751202
 H        -8.9226190869        2.8637049129       -3.3470926298
 H        -7.8518356966        2.7197198071       -0.5102851851
 H        -6.7719997586        2.7075656304       -1.8618769760
 H        -8.8129308906       -2.8824974208        0.2999417868
 H        -8.7488793256       -2.3647266498       -1.3938209482
 H       -10.5440834592       -3.8722270716       -0.9872392910
 H       -11.2379766063       -2.2199721776       -1.3484189776
 H       -14.2975050269       -1.2655584852        2.7428229163
 H       -14.4581072800        0.0738839891        1.5842908059
 H       -12.9941994953       -0.3835972835        2.4018971565
 H       -13.3152376390       -5.0426096993       -0.2236904607
 H       -13.3877862002       -3.3880703705       -1.0072557223
 H       -14.6366996061       -3.8717305995        0.1217956986
 H       -14.2669585854       -3.5939810639        2.7073959369
 H       -12.7644785209       -2.7132377338        3.1477467798
 H       -12.5775529126       -4.3658442679        2.6680927541
 H        -6.6678822775       -1.7641939439        0.3086705737
 H        -5.9503268163       -0.4686425614       -0.6015140046
 H        -6.8955681989       -1.5524860853       -1.4960007191
 H        -8.5229741849        1.5038788515        1.1406027762
 H        -6.7328692611        1.4629318395        0.7492363195
 H        -7.4258258018        0.2805300208        1.9319452654
 H       -11.9661304198        1.3686875203       -3.5495965282
 H       -10.8882414042        2.2790100312       -4.4722379729
 H       -12.5173606452        2.7187837421       -4.5329317113
 H       -11.1311158194        5.4285411325       -2.5619611427
 H       -12.5115937239        5.0293803004       -3.4469944290
 H       -10.8536151141        4.7543012280       -4.1347027430
 H       -13.7548888931        3.0857915109        4.3808541891
 H       -12.8084175213        4.5990615820        4.7679165830
 H       -12.0894344734        3.3073703065        3.6709649203
 H       -15.7751409642        4.0013421269        3.0063701532
 H       -15.5422659164        5.5860022644        2.2432240115
 H       -15.4383855719        5.4055724708        4.0845169101
 H       -10.7367365932       10.4036789781       -0.2299942382
 H       -10.6657680900        9.6575813100        1.3290913332
 H       -11.9377943256        9.0826425453        0.1162461529
 H       -10.9100952239        8.5269553399       -1.9967482485
 H        -9.5569982271        7.3628429853       -2.0585528628
 H        -9.2092837964        9.0962346562       -2.0998604647
 H        -1.6342505920        8.9779367322       -2.0065294107
 H        -2.8900770669        7.7436332487       -2.2512456788
 H        -2.0832050060        7.9329381369       -0.7008883856
 H        -2.8621788799        9.7704691908        0.9572779689
 H        -3.7828428255       11.1169556421        0.3424061247
 H        -2.2533355654       10.9439488397       -0.2957499160
 Na      -12.2181428260        0.7423414900        0.1552541727
