117

 C        -9.9737606929       -0.7630354535        9.9274657140
 C        -8.7045566014        0.0283851390        9.9792541142
 O        -8.5083726559        0.9786216821       10.6864890539
 C        -7.4691457521       -0.5579505789        9.1264993207
 C        -7.7994782367       -0.4111514429        7.5883771394
 O        -8.8586954460       -0.8903634936        7.2670834077
 C        -6.7843382016        0.1226476580        6.5602820796
 C        -7.5296540393        0.1824882231        5.2423949087
 C        -6.6457109606        0.6463507090        4.0002895431
 O        -5.4511556327        0.8029814220        4.1602904208
 C        -7.3176017654        0.7117905462        2.5057033065
 C        -7.7445115697        2.1968055117        2.6183266471
 O        -8.4181461333        2.5411563431        3.5778571435
 C        -7.0655212108        3.1683891311        1.7149207555
 C        -7.5953922035        4.6178287891        1.5962480904
 C        -8.9074972987        4.7296601651        0.8157571695
 O        -8.8335492546        4.4500912058       -0.3876061315
 C       -10.2452500697        5.1323839579        1.5083566605
 C       -11.5436162026        4.9611445648        0.6085530489
 O       -11.7378041200        5.5977284558       -0.3964840351
 C       -12.6165449299        3.9643435224        1.0767750928
 C       -13.5179792202        3.4514511963       -0.1085661240
 C       -12.9332720935        2.1398199286       -0.6942812320
 O       -12.0436968696        1.5798327374       -0.1124061521
 C       -13.2032596849        1.9307844535       -2.2618553729
 C       -12.1327755197        2.8950116359       -2.9706469067
 O       -11.6292332751        3.7699218973       -2.3098477423
 C       -11.6314613421        2.6400901926       -4.4729222130
 C       -10.9404722618        3.8643072340       -5.1080356753
 C       -11.6383023545        4.1837968845       -6.3917947131
 O       -12.8562208990        3.8962459617       -6.5294058796
 C       -10.8288251862        4.9749123685       -7.5454290601
 C       -10.4955361995        6.4167423624       -6.8767515223
 O        -9.4216587233        6.5924512396       -6.3299293769
 C       -11.6464450021        7.4401101034       -6.4881768606
 C       -11.2490247541        8.5667672577       -5.5103916282
 C       -10.5866312803        7.9266301928       -4.2861246824
 O       -10.8474001705        6.7723505775       -3.9737121432
 C        -9.4276575719        8.6265827781       -3.5675410289
 C        -8.2787284518        7.6598629533       -3.8286372240
 O        -8.2062882622        6.6613107299       -3.2088662946
 C        -7.0902853136        7.9819637322       -4.7777161921
 C        -9.1142981691       10.1127022383       -3.9902972619
 C        -9.6657989071        8.5259659948       -1.9941838014
 C        -9.5249324213        4.2919259159       -7.8184725213
 C       -11.7340203544        5.1603193655       -8.8383540827
 C       -12.9813493124        0.4840953519       -2.7660989885
 C       -14.6242390637        2.4429140242       -2.5990537695
 C       -10.4869451853        4.4937461416        2.8959659853
 C       -10.1042640477        6.6636708188        1.8267296847
 C        -6.3363817112        0.3767232408        1.3405143776
 C        -8.6183296522       -0.0979097478        2.5209747883
 C        -6.2449735946        0.3045655577        9.4313888093
 C        -7.2316973539       -2.0522018557        9.4022165737
 H        -9.8582253493       -1.7573530371        9.3258306825
 H       -10.6768060034       -0.1284129731        9.3785560376
 H       -10.3533107607       -0.7932136997       10.9820768818
 H        -5.8475882017       -0.4769981111        6.4292301998
 H        -6.3266808074        1.0419520533        6.8959093264
 H        -8.3707444635        0.8376455613        5.3299261835
 H        -7.8585001132       -0.7853188705        5.0624016578
 H        -6.9722806956        2.7896014654        0.7318742989
 H        -6.0559531756        3.2559458792        1.9985108285
 H        -6.8433522946        5.2611278738        1.1037187662
 H        -7.7612515585        4.9936845144        2.5747385326
 H       -13.3140021228        4.5353411853        1.6621975572
 H       -12.0938910424        3.0269471877        1.5171584413
 H       -13.6047453785        4.1683828670       -0.9883510452
 H       -14.4959361009        3.2223904735        0.3152689127
 H       -12.4166403930        2.1432275276       -5.1253194790
 H       -10.8024495198        1.9201636295       -4.3733779380
 H        -9.8765562980        3.6043690825       -5.3280817984
 H       -10.9033368347        4.8377636601       -4.5483238514
 H       -12.4446157499        6.8079353418       -6.1429422264
 H       -11.9483298654        7.8577394290       -7.4318650013
 H       -12.1385689779        9.1149866046       -5.1209170191
 H       -10.6515400177        9.4315117721       -5.8651364786
 H        -7.1507165602        7.1701755961       -5.5567312207
 H        -6.2203261108        7.6686786710       -4.1973472779
 H        -7.0440748499        8.9579372250       -5.2975788530
 H        -9.8118447104       10.7892949303       -3.6792085251
 H        -8.9992179126       10.2008130583       -5.0900915912
 H        -8.1362405863       10.3822316435       -3.5730270872
 H        -9.9700121099        7.4913065350       -1.5876320253
 H       -10.4380669182        9.3192528216       -1.8306506758
 H        -8.7826522822        8.8842851897       -1.4485572417
 H        -9.6941724090        3.2025579446       -7.7828766717
 H        -8.8364847233        4.5013773048       -7.0623684298
 H        -9.2386683988        4.4447638026       -8.8401102488
 H       -11.8300392218        4.2354055721       -9.3538095903
 H       -11.3005564845        5.7928511633       -9.5551138232
 H       -12.6472377218        5.6511636327       -8.5391062468
 H       -13.3436479947       -0.3183058076       -2.1292138705
 H       -11.9033639405        0.2697624175       -3.0019926961
 H       -13.3660698130        0.5377731513       -3.7780887557
 H       -15.3813288896        1.6390766951       -2.5149960468
 H       -14.7384033679        2.8743984114       -3.5317811565
 H       -15.0330143731        3.1342999944       -1.9125248651
 H       -11.2484434911        5.0862492488        3.3319208299
 H        -9.4838448191        4.5419521448        3.4829554625
 H       -10.8741875559        3.4965635758        2.8930763965
 H        -9.5155069256        7.2253655944        1.0946944223
 H        -9.6936563670        6.8112899864        2.8577700449
 H       -11.1080899989        7.1667901187        1.9154844576
 H        -5.9857297655       -0.6528112251        1.4265613008
 H        -5.4770105485        1.0160955729        1.3700989917
 H        -6.8534387337        0.5136684399        0.3699541904
 H        -9.1865910947        0.3728966994        3.2725236759
 H        -8.3590830856       -1.0258258460        2.9417306193
 H        -9.0132429531       -0.1215876347        1.5542971523
 H        -6.3946166843        1.3355848316        9.0534169703
 H        -5.3976889876       -0.1260606464        8.8996035021
 H        -6.1488086403        0.3517051846       10.4741436211
 H        -7.9787626234       -2.7071423922        9.0008679652
 H        -7.1450768855       -2.2019004213       10.4318366299
 H        -6.3777738950       -2.2512924701        8.8056964901
 Na      -10.0422231673        5.3774385053       -2.2445082018
