117

 C        -3.0107419436       10.8842791653       -3.1249201695
 C        -3.9423425490       10.2411077027       -2.1055332250
 O        -5.0703230512       10.6852300607       -2.0526487008
 C        -3.4348247209        9.2716737865       -0.9593222339
 C        -4.6160795918        8.1384499754       -0.5779990014
 O        -4.6039969663        6.9676530173       -0.8544196394
 C        -5.8382998511        8.6804329186        0.1364110082
 C        -7.0898767142        7.8407104960       -0.1000067902
 C        -8.2949807643        8.6409488100        0.3428057167
 O        -8.2636434597        9.4227078899        1.2680707997
 C        -9.5975125371        8.4347622003       -0.5164887752
 C       -10.3113556851        7.1582575857        0.2310597693
 O       -10.4849798277        6.1350001941       -0.3814765981
 C       -10.7197120850        7.2615010432        1.7770037282
 C       -11.3322168209        6.0599814064        2.3805076426
 C       -12.8387412494        6.0053748263        1.9467433943
 O       -13.4585160131        6.8009458001        1.2900044054
 C       -13.6421350541        4.7539890704        2.6253414448
 C       -13.5648484333        3.6472803007        1.4632667357
 O       -12.8712042360        2.6481926068        1.6295725042
 C       -14.2152320991        3.9823268621        0.1598178979
 C       -13.2865134420        4.3762933680       -1.0377142975
 C       -12.8301958974        3.1151346086       -1.7459341803
 O       -13.3305763534        2.0156292074       -1.5429468291
 C       -11.6430289716        3.2515409594       -2.7424857396
 C       -10.3429634322        2.8723659370       -1.8504142242
 O       -10.4439632896        2.5285856295       -0.6950745124
 C        -8.9926360958        2.8057240083       -2.6106850581
 C        -7.8975706846        2.1615342327       -1.8191135151
 C        -8.2980821841        0.7334641015       -1.4899889143
 O        -8.8544310248       -0.0129431414       -2.3013695010
 C        -7.8954496779        0.0558171750       -0.0928345877
 C        -9.2198446710       -0.8035031965        0.1847572085
 O       -10.2094972738       -0.2713388923        0.6281420999
 C        -9.2393974631       -2.2855946633       -0.1576945401
 C       -10.6841480830       -2.9093420937       -0.2752198139
 C       -11.3549885780       -2.9193168082        1.1004644410
 O       -10.6807248065       -2.8359919734        2.1098458053
 C       -12.9392693751       -3.0053688518        1.1992043258
 C       -13.3739886776       -1.5674602127        1.4690720791
 O       -13.5270480606       -0.8037823431        0.5441556903
 C       -13.8824594437       -0.9763052530        2.8035945731
 C       -13.6079538055       -3.5058314848       -0.1102528773
 C       -13.0859905911       -3.8474259608        2.4823668269
 C        -6.7008963211       -0.9046291912       -0.3584667971
 C        -7.6558481606        0.9861451244        1.0936838179
 C       -11.7224649772        2.1940610584       -3.9099301983
 C       -11.5349027939        4.7020616666       -3.3398381013
 C       -12.9955159037        4.3454788315        3.9093225867
 C       -15.1481741591        5.1061004250        2.7729041288
 C       -10.4761160837        9.7615252703       -0.3321349213
 C        -9.3812033262        8.1017231898       -2.0322763227
 C        -2.2090444965        8.3462064041       -1.2684675004
 C        -3.1120988079       10.2789145903        0.1916311922
 H        -2.4040379365       10.1421479966       -3.7129016321
 H        -2.3796842675       11.6060895115       -2.5970066465
 H        -3.6233176313       11.4707599427       -3.7875958747
 H        -5.9629737353        9.7504544972       -0.0786573848
 H        -5.6393819395        8.5568590326        1.2433265050
 H        -6.9195706700        6.8423857435        0.3975316470
 H        -7.1556609359        7.6280698882       -1.1766747324
 H       -11.3881068951        8.0961232741        1.9615739169
 H        -9.8190623460        7.5506979240        2.3142705322
 H       -11.4820957458        6.1841593456        3.5338636993
 H       -10.8458153345        5.1069490513        2.1680854543
 H       -14.9339692725        4.7861018737        0.3788484242
 H       -14.7746804498        3.0981392476       -0.1499139815
 H       -12.3806347610        4.8776671966       -0.6977795859
 H       -13.7700165047        5.1127872863       -1.6293384890
 H        -8.7819261582        3.8118789272       -3.0559246174
 H        -9.0965727430        2.1568795553       -3.4814374283
 H        -7.5779061075        2.6659126279       -0.9114005680
 H        -6.9439354702        2.2445539417       -2.4062728131
 H        -8.6262389784       -2.8120586911        0.5589542520
 H        -8.6781417505       -2.6227756029       -1.0203041084
 H       -10.6680314154       -4.0071993944       -0.5612412815
 H       -11.2442334647       -2.4074654293       -1.0642239309
 H       -14.7678287612       -1.4599348252        3.2767100606
 H       -14.2738999337       -0.0016226829        2.6211276862
 H       -13.1324770224       -0.9603173417        3.6098007924
 H       -13.0907282715       -4.5058735892       -0.3332536496
 H       -13.4241436320       -2.7971321394       -0.9276466774
 H       -14.6413910775       -3.6161923623       -0.0223400828
 H       -14.1367549761       -4.1324828943        2.4400245064
 H       -12.7880162621       -3.3355545205        3.3638673093
 H       -12.5821318160       -4.7524622031        2.3755558716
 H        -6.7362548818       -1.8321662479        0.3298541855
 H        -5.8553970511       -0.3002011726       -0.0518216361
 H        -6.5993830047       -1.2867374301       -1.3701409333
 H        -8.3901641117        1.8034072036        1.0350094955
 H        -6.6469098706        1.3761830764        1.0638555241
 H        -7.7814247790        0.4611727296        2.0453031393
 H       -11.4093584630        1.1756108626       -3.6465806095
 H       -11.0228863818        2.4278586483       -4.7114571660
 H       -12.7680844708        2.0143173828       -4.3565277967
 H       -11.2548325953        5.4244441186       -2.6598555782
 H       -12.4212291490        4.9709839323       -3.8937996560
 H       -10.7733041266        4.6931287417       -4.1447122162
 H       -13.6679882378        3.6407570851        4.3963692416
 H       -12.9090050084        5.1947371416        4.5896161272
 H       -12.0382462833        3.8498802422        3.7114956219
 H       -15.7616728682        4.2009283168        2.6350895611
 H       -15.3425088099        5.7877612181        2.0123963023
 H       -15.3389306691        5.6120815113        3.7177576728
 H       -10.1949740992       10.4573389750       -1.0967871119
 H       -10.3067674115       10.1272877047        0.6695928757
 H       -11.5942209273        9.5658360930       -0.3940439794
 H       -10.3589592529        8.1242409784       -2.5459920600
 H        -8.9636285663        7.1272120598       -2.1970097094
 H        -8.8080925837        8.8721275120       -2.5605387118
 H        -1.3560987420        8.8269974159       -1.7764839126
 H        -2.5401961224        7.4818993156       -1.9034105922
 H        -1.8587773048        7.8684850600       -0.3549301224
 H        -2.8124133275        9.7343819063        1.0569605115
 H        -4.0340872310       10.8252398050        0.4196806155
 H        -2.2480874643       10.8471166643       -0.1059886944
 Na      -12.1095036346        1.0059644298        0.1680654148
