117

 C        -2.9124346263       10.8401704070       -3.0329079072
 C        -3.9462935004       10.1879230557       -2.1057891914
 O        -5.0827168967       10.6250577042       -1.9914121118
 C        -3.5034107862        9.1376226077       -0.9617599009
 C        -4.6064926301        8.1875905487       -0.6074629911
 O        -4.4847759984        7.0022344211       -0.9404039043
 C        -5.8432497140        8.6984106740        0.2306118352
 C        -7.0504834420        7.7281686572       -0.0882678832
 C        -8.3439977638        8.5303681351        0.2594630873
 O        -8.2607180256        9.2232695902        1.2831538481
 C        -9.7144822399        8.4056000485       -0.5094185046
 C       -10.3478367993        7.2382252194        0.1928222876
 O       -10.4273131493        6.1324650317       -0.2718696455
 C       -10.7030863122        7.4417563451        1.6428367499
 C       -11.3594747042        6.2445925231        2.3267332204
 C       -12.8413378417        6.0539483218        1.9627445872
 O       -13.3340082555        6.7818042657        1.1597002621
 C       -13.6200296574        4.7967651060        2.5699223916
 C       -13.4812864496        3.7004709253        1.4451395951
 O       -12.8818208003        2.6968707475        1.7880140306
 C       -14.2646107894        3.9503664501        0.1287160848
 C       -13.3576632738        4.3702143554       -1.0378416668
 C       -12.8240177057        3.1913843924       -1.8918694672
 O       -13.2791676982        2.0874911172       -1.6092370263
 C       -11.6195640059        3.2260984503       -2.8687332522
 C       -10.3357398916        2.7732278749       -1.9675615061
 O       -10.4480784660        2.6240370808       -0.7803067033
 C        -8.9834764965        2.7655309687       -2.6212799083
 C        -7.8922962938        2.0846641676       -1.7562830877
 C        -8.2258123792        0.6593384964       -1.4315971765
 O        -8.9954614276        0.1032615807       -2.2231730880
 C        -7.8381683746       -0.0424941773       -0.0797676469
 C        -9.2078213615       -0.8521345159        0.0958592880
 O       -10.1918708883       -0.1498597801        0.4796985557
 C        -9.2682233400       -2.2970919254       -0.1777059750
 C       -10.6749053479       -2.8748837026       -0.1954103276
 C       -11.3301852478       -2.8981896572        1.2178086779
 O       -10.7125741092       -2.8949812393        2.2610064225
 C       -12.9516218815       -2.9950993230        1.3003822207
 C       -13.5224318368       -1.4643999980        1.5578771125
 O       -13.5947131131       -0.6862337116        0.5792752257
 C       -13.8186918727       -1.2181874496        2.9930399977
 C       -13.5779056884       -3.5231580416        0.0157740331
 C       -13.2436317194       -4.0408702526        2.4964917119
 C        -6.5421350665       -0.8184437236       -0.2509166657
 C        -7.8092752287        1.0047722258        1.0679375665
 C       -11.7294366890        2.2227032889       -4.0667568407
 C       -11.5572841346        4.5957352008       -3.5274378237
 C       -12.9792123574        4.2871864109        3.9073777032
 C       -15.1394231615        5.1481845405        2.7986615712
 C       -10.3881603748        9.8004647534       -0.5083264553
 C        -9.4762833315        8.1424957162       -1.9824947493
 C        -2.2259288970        8.3582942868       -1.1560952408
 C        -3.2192102911       10.1999459845        0.1002867051
 H        -2.4155460614       10.0090815326       -3.5972404850
 H        -2.2114800582       11.4361001480       -2.5115168859
 H        -3.4461290202       11.5095649177       -3.7693498560
 H        -6.0951758564        9.6840791107       -0.1768480255
 H        -5.6916183775        8.8231491903        1.3213872770
 H        -7.0490628850        6.8445971151        0.5640942846
 H        -6.8839504496        7.3605155233       -1.1019692722
 H       -11.1351810400        8.4195391884        1.8980505758
 H        -9.7099220091        7.4568696313        2.1216526706
 H       -11.2438566172        6.2707031249        3.4406753642
 H       -10.8649115938        5.3293561062        1.8970642442
 H       -15.0997463903        4.6667895058        0.3428174556
 H       -14.6867168123        3.0078244420       -0.2074430143
 H       -12.5422933292        5.0744623352       -0.7661350033
 H       -13.9859505768        5.0316972827       -1.7044748169
 H        -8.7441601645        3.8458078854       -2.8877190967
 H        -9.0783400442        2.2944439018       -3.5662918944
 H        -7.6934730127        2.6429327677       -0.8578717817
 H        -6.8962444930        2.1586995554       -2.2528310373
 H        -8.5885222160       -2.8564362062        0.4159425281
 H        -8.7722198469       -2.5819343950       -1.1629468359
 H       -10.7257550162       -3.8868345295       -0.5685112257
 H       -11.3046577138       -2.2744623409       -0.8844092590
 H       -14.5019465800       -1.8878384172        3.5848408266
 H       -14.2353888098       -0.2279681885        3.3645515958
 H       -12.8014253285       -1.3779404516        3.3901332752
 H       -13.3884756553       -4.5715796636       -0.0708212714
 H       -13.3152090134       -2.9789102041       -0.8807567811
 H       -14.6459388582       -3.3943583178        0.1047887449
 H       -14.3070325722       -4.2644094573        2.5174654019
 H       -12.8147817452       -3.7364360253        3.4357916774
 H       -12.8104313649       -4.9763330127        2.1887983991
 H        -6.5174720870       -1.6588167236        0.3701352218
 H        -5.7683933420       -0.1417542307        0.0858903870
 H        -6.3491970527       -1.2048207921       -1.3279318720
 H        -8.6370566068        1.6698192001        0.9739070111
 H        -6.8840304233        1.5891849573        0.9516022975
 H        -7.7754497097        0.5432371081        2.0169633734
 H       -11.7453364235        1.1085718506       -3.8675902172
 H       -10.8553283507        2.3167551692       -4.7498684573
 H       -12.6056558469        2.3740118420       -4.6190799800
 H       -11.5754962236        5.3903843557       -2.8090976733
 H       -12.4382067526        4.6479301890       -4.2401526660
 H       -10.7400440684        4.7365824489       -4.2331301108
 H       -13.4856027967        3.5000734109        4.3452409710
 H       -12.9792953785        5.1634549298        4.5647731352
 H       -11.9846825544        3.9776167525        3.7146995279
 H       -15.6312986401        4.2595216826        2.6363847524
 H       -15.4579564178        5.8985442307        2.1082129078
 H       -15.2642165197        5.5337951224        3.7946396881
 H        -9.8018822370       10.3902729607       -1.1083420278
 H       -10.4282333448       10.2195878049        0.4981486980
 H       -11.4080573594        9.7577213881       -0.8780210716
 H       -10.4305678244        7.8321314015       -2.4635210131
 H        -8.7510889402        7.3463325716       -2.1823762311
 H        -9.1576935211        9.0234299553       -2.5309210834
 H        -1.3956209690        9.0402165127       -1.4509240099
 H        -2.3240453176        7.5774211855       -1.9522333701
 H        -1.9534193062        7.7908075827       -0.2786517229
 H        -2.7491802504        9.7784943984        1.0113795915
 H        -4.1600861497       10.6032446635        0.3804034021
 H        -2.4650126619       10.8764114848       -0.4050868291
 Na      -12.0314314451        1.1188383745        0.2472217037
