117

 C        -2.0282896635       10.4802535734       -2.6133886017
 C        -3.2504437729        9.8021903149       -2.0007709711
 O        -4.3409520954       10.0546555199       -2.4633129198
 C        -3.0542834500        8.8295871228       -0.7075238330
 C        -4.4434895990        8.0360248156       -0.4506610789
 O        -4.6568493431        6.8823994733       -0.8362826238
 C        -5.6880481663        8.8457791591        0.0871962704
 C        -6.8762425385        8.5743686540       -0.9416736873
 C        -8.2029732285        8.2656880262       -0.2400433116
 O        -8.3026718196        8.2054751407        0.9787111694
 C        -9.4007283397        8.0300267611       -1.0870804917
 C       -10.5127101703        7.3477737255       -0.2221712796
 O       -10.7960409451        6.1985129082       -0.4480737900
 C       -11.2543950020        8.2206116178        0.7872290697
 C       -12.1089098423        7.3979585030        1.8334794174
 C       -13.3310162217        6.6219649510        1.3046337298
 O       -14.1295013204        7.0312812392        0.4312403441
 C       -13.7224317239        5.3416490659        2.1082139169
 C       -13.6701703101        4.1370022304        1.0325423997
 O       -12.8390489529        3.2263805904        1.2446620859
 C       -14.4895599280        4.1919078579       -0.2640359984
 C       -13.6633730365        4.3423093067       -1.4993077757
 C       -12.9496739607        3.0334809835       -1.8030336394
 O       -13.4785360994        1.9974370120       -1.4828497332
 C       -11.6610225245        2.9994815385       -2.7144116886
 C       -10.4570140121        2.3128573937       -2.0388114437
 O       -10.5937858384        1.4775183902       -1.1987229398
 C        -9.0145978801        2.4945766826       -2.7041074049
 C        -7.9816900388        1.9075188815       -1.6799532675
 C        -8.4038646920        0.4544114859       -1.3074277422
 O        -8.7338406500       -0.3693064078       -2.1092670904
 C        -8.4015280108        0.1628093025        0.2473988774
 C        -9.5858549391       -0.8792162548        0.4840528922
 O       -10.5617792701       -0.5658021710        1.1230709651
 C        -9.5141598164       -2.2430955624       -0.1517297169
 C       -10.6335099336       -3.3022338990        0.2380823382
 C       -11.2625577460       -2.9492703886        1.5730875192
 O       -10.6824720945       -3.0814278964        2.6243674851
 C       -12.6782978012       -2.3382924096        1.6812594266
 C       -12.8427615422       -1.1990247144        2.6956588605
 O       -13.0036510116       -0.0602498079        2.2873458241
 C       -12.6227583556       -1.4998561721        4.0869327953
 C       -13.2202214876       -1.9235957267        0.3137710093
 C       -13.6364498678       -3.5067419811        2.1358617992
 C        -7.0881864528       -0.4263780010        0.7123457547
 C        -8.6995627185        1.4160619111        1.1321951896
 C       -12.0762412335        1.9194266780       -3.8012661205
 C       -11.2738239667        4.4051790854       -3.3012352527
 C       -12.8295300131        4.9818395308        3.3758566950
 C       -15.1923675485        5.4796005566        2.6372184341
 C        -9.8763748159        9.4784819090       -1.4380817722
 C        -9.1422588179        7.2846815583       -2.4112092502
 C        -2.0458716687        7.7263095824       -1.0930908904
 C        -2.6011469058        9.6575437333        0.5903833561
 H        -1.1260449518        9.8784651500       -2.3830588266
 H        -1.9299945421       11.3658627007       -2.0769019803
 H        -2.1325786314       10.7811546998       -3.6849215325
 H        -5.5770412459        9.9213322428        0.2677995089
 H        -5.9499666045        8.3349618839        1.0621151870
 H        -6.6206597519        7.5914711997       -1.4481770826
 H        -6.9735015663        9.3364178654       -1.7286198360
 H       -11.8437158512        9.0152900235        0.3427661347
 H       -10.5297016120        8.7364963399        1.4234863033
 H       -12.4924551735        8.0931414089        2.6680782046
 H       -11.4893952491        6.7301613836        2.3901813171
 H       -15.2279141242        4.9937906097       -0.1798469410
 H       -15.0286225195        3.2711734966       -0.3254673786
 H       -12.9529877000        5.1433665525       -1.2769170375
 H       -14.2782499162        4.5940722347       -2.3246784494
 H        -8.8028857370        3.5638104002       -2.8441974455
 H        -8.8463265335        2.0005937495       -3.6979829126
 H        -7.8478306608        2.5088696619       -0.8060635395
 H        -7.0173692402        1.9541412213       -2.2226175570
 H        -8.5200800227       -2.5432142571        0.2786340582
 H        -9.4980867333       -2.2167916095       -1.2434426383
 H       -10.2754002851       -4.3304950384        0.3963170117
 H       -11.3957919692       -3.3978713127       -0.5114786983
 H       -13.4861511796       -1.9507283070        4.6185275316
 H       -12.2918394322       -0.5975025319        4.6175458468
 H       -11.8681203206       -2.1724863913        4.3532521858
 H       -13.2796029644       -2.7553691224       -0.4139356013
 H       -12.5845087012       -1.1909432793       -0.2738795895
 H       -14.1712670889       -1.4216455670        0.4972990983
 H       -14.7153629837       -3.1831928028        2.2133434500
 H       -13.2291453173       -3.9020430811        3.0666314630
 H       -13.6250188647       -4.2034517553        1.3267716643
 H        -7.0239158432       -0.9069659196        1.6719267419
 H        -6.3335302036        0.3758754705        0.6706285500
 H        -6.7819779010       -1.2795925112       -0.0218509760
 H        -9.7176336503        1.7905363593        0.9650040156
 H        -7.9682966664        2.2200684252        0.9240048968
 H        -8.5782637086        1.3300363471        2.2183170230
 H       -11.9208741353        0.9228472924       -3.2496924332
 H       -11.4392084170        1.8906319239       -4.7167422246
 H       -13.1159519738        1.9082561539       -3.9704402617
 H       -11.0424026304        5.0660974323       -2.4838782918
 H       -12.0363395861        4.7528939615       -3.9853869660
 H       -10.4526708340        4.2971141697       -3.9533429372
 H       -13.1635587020        4.0329917143        3.7698982790
 H       -12.9111869383        5.7513513423        4.2264680901
 H       -11.7538803105        4.7269596534        3.2061124308
 H       -15.5020896200        4.4848342272        2.9457537290
 H       -15.7213202992        5.8687217256        1.7521930708
 H       -15.3493888847        6.2971106251        3.4073463447
 H        -9.1589526152        9.8832494733       -2.1319093520
 H       -10.0658997994       10.1781710537       -0.5653215054
 H       -10.8628841029        9.4537233423       -1.9268891631
 H       -10.0980916916        7.1770168983       -2.9686166969
 H        -8.7521058470        6.2996760666       -2.3750748502
 H        -8.5627770890        7.9449675433       -3.0664314036
 H        -1.1944929815        8.1202307431       -1.6121859864
 H        -2.4647956261        6.9731247233       -1.7645812060
 H        -1.6837940182        7.1366382230       -0.3090016086
 H        -2.4433168187        9.0264458593        1.4432285693
 H        -3.3455450306       10.3907604983        0.7952141063
 H        -1.6080853201       10.0258692961        0.3294140273
 Na      -12.3193729306        1.0250581958        0.4559978461
