117

 C        -1.9196910062       10.4527354498       -2.4810839665
 C        -3.2221745581        9.7863044323       -1.9249129163
 O        -4.2434992733        9.9636868108       -2.5349327656
 C        -3.1401882111        8.7949379644       -0.7286460904
 C        -4.5125634391        8.0235881820       -0.4985461632
 O        -4.6292092148        6.8536443429       -0.7071837536
 C        -5.6691009305        8.8937182202        0.0472153350
 C        -6.8861868710        8.6554765596       -0.8700441920
 C        -8.1699579218        8.2007929553       -0.1422204418
 O        -8.3048049041        8.1637799669        1.0365636991
 C        -9.4707614144        8.0501074441       -1.2266793257
 C       -10.5869419168        7.2973098159       -0.3845775437
 O       -10.8689402947        6.1256799449       -0.5940668584
 C       -11.3075811029        8.1369358113        0.6847094733
 C       -12.0482394207        7.3892857226        1.8345047313
 C       -13.2379233735        6.6362145888        1.3561574132
 O       -13.9391866689        7.1081924239        0.4631324356
 C       -13.7331583977        5.2511375749        2.0661454498
 C       -13.6536169037        4.1015426593        1.0824346353
 O       -12.8859355566        3.1786517426        1.1930150878
 C       -14.5522649223        4.2950373330       -0.1689415040
 C       -13.7090568397        4.3860038112       -1.4495335800
 C       -12.9175342256        3.0680499650       -1.8326324300
 O       -13.3811970825        1.9755803062       -1.4700220714
 C       -11.6833076248        2.9396610281       -2.7690911978
 C       -10.4635677065        2.2565724162       -2.0929539960
 O       -10.6408574446        1.4771677057       -1.1563773729
 C        -9.1255791949        2.3533808343       -2.7172144213
 C        -8.0094747093        1.9389773401       -1.7386868950
 C        -8.3929315633        0.5341713502       -1.2135659611
 O        -8.5370661322       -0.3007514837       -2.0516307846
 C        -8.4141170869        0.1059858511        0.2737713132
 C        -9.5779928371       -0.9283696475        0.5044089486
 O       -10.5638798314       -0.5917014764        1.1079995904
 C        -9.5778151239       -2.3051058999       -0.2557060248
 C       -10.6325772417       -3.2802363905        0.3361491484
 C       -11.2179818977       -2.8763150446        1.6981607608
 O       -10.6545751606       -3.3049939478        2.6773684195
 C       -12.7361305601       -2.2731787983        1.6748596086
 C       -12.8360404516       -1.0793517761        2.7906242066
 O       -13.0413863194        0.0679755745        2.4255751085
 C       -12.7080477329       -1.4500449504        4.2170051896
 C       -13.1528096498       -1.7814998574        0.2281393771
 C       -13.6329492442       -3.4914701295        2.1189665879
 C        -6.9886650856       -0.4192824141        0.7733984094
 C        -8.7121165525        1.3364657449        1.1948886254
 C       -12.1423454425        1.9117045283       -3.8588968927
 C       -11.3528612341        4.3280650732       -3.3644443675
 C       -12.8473908563        5.1206215745        3.3289912726
 C       -15.2274806384        5.5792100826        2.5071638230
 C        -9.9264340145        9.4788596461       -1.5879317890
 C        -9.1632021493        7.3005107650       -2.4830470023
 C        -2.0811161641        7.7549302567       -1.1128146776
 C        -2.6414109740        9.5195797533        0.5177571759
 H        -1.0215943590        9.8625320671       -2.3878202609
 H        -1.7628762055       11.4111376930       -1.9414570672
 H        -2.1329038843       10.7704058386       -3.5223727347
 H        -5.4559829212        9.9632307742       -0.0441789483
 H        -5.8658315052        8.6567255450        1.1196871594
 H        -6.6424949982        8.0822321707       -1.7911387919
 H        -7.1857020825        9.6571234361       -1.2006855282
 H       -12.0913487396        8.7969485509        0.2351556249
 H       -10.6394879525        8.8451473387        1.2225732230
 H       -12.3898688984        8.1109398212        2.5254728842
 H       -11.4117705023        6.7182546323        2.4627528726
 H       -15.1390192716        5.2299045959       -0.0749804247
 H       -15.2627992747        3.4935309886       -0.2651368949
 H       -13.1284391392        5.3510396292       -1.4012060777
 H       -14.4854295708        4.4206141457       -2.2525661369
 H        -8.9724841045        3.4386343623       -3.0274756019
 H        -9.1199488637        1.7819606258       -3.6102635155
 H        -7.8486761454        2.6694088764       -0.9502879508
 H        -7.0677904158        1.9447579969       -2.3020795419
 H        -8.5844634059       -2.7221574192       -0.2907899082
 H        -9.9744892641       -2.0021107125       -1.3051376070
 H       -10.2984382114       -4.2616175005        0.5400478897
 H       -11.4699066961       -3.4551131986       -0.3302099247
 H       -13.5998293474       -2.0747021339        4.4260104002
 H       -12.6063229468       -0.6644238994        4.9901570417
 H       -11.9202074414       -2.1577352439        4.5057571863
 H       -13.1236639884       -2.5445591806       -0.4913240465
 H       -12.5195312476       -1.0112313588       -0.2313384169
 H       -14.1965430910       -1.3483733042        0.2571836014
 H       -14.6243201365       -3.1759225209        2.3457022362
 H       -13.1138923716       -3.9421243305        2.9521479648
 H       -13.7590459438       -4.1878269264        1.2906782160
 H        -6.8447107158       -0.6992686731        1.8199369965
 H        -6.2422144469        0.4039347876        0.5142989945
 H        -6.7203149288       -1.2568644149        0.2288629820
 H        -9.5583975575        2.0096891197        0.9849421580
 H        -7.7631278886        1.9440577800        1.2021372800
 H        -8.7654786556        1.0697871820        2.2467087933
 H       -11.9329327735        0.9067346704       -3.4802996491
 H       -11.5275692957        2.0195719244       -4.8014815502
 H       -13.2403227781        1.8994482639       -3.9900382856
 H       -10.9073152041        4.9880765979       -2.5497385111
 H       -12.1940912998        4.7527823799       -3.8729027002
 H       -10.7482064746        4.2042827244       -4.2160004414
 H       -13.1262932553        4.3766423333        4.0789074775
 H       -12.8057647539        6.0991600910        3.8142618178
 H       -11.8336648611        4.7785547372        3.0768294322
 H       -15.7436457417        4.6851231869        2.7137055992
 H       -15.7142494674        6.2868045565        1.8029132891
 H       -15.1318167112        6.1715663321        3.3955524297
 H        -9.0206670761       10.0115946514       -1.9951277006
 H       -10.3114785263       10.0289092239       -0.7546025828
 H       -10.6779589904        9.4900254750       -2.2857791668
 H        -9.9889626341        7.3972314961       -3.2015031992
 H        -9.0701824976        6.2254112269       -2.3408500029
 H        -8.2939550590        7.6957321838       -2.9797015083
 H        -1.1407411923        8.1815293385       -1.4469431412
 H        -2.4109706891        7.1026399201       -1.9055940876
 H        -1.8728471995        7.0363584700       -0.3494946740
 H        -2.0679556745        8.8609962736        1.1557443083
 H        -3.3905570780        9.9744227758        1.1062927782
 H        -1.8737235997       10.1809446405        0.0524216369
 Na      -12.2346974327        1.0725473211        0.5022607725
