117

 C        -1.8928007555       10.4796656637       -2.2955003143
 C        -3.2119232992        9.7161387205       -2.0050278934
 O        -4.2854764215        9.8969491417       -2.5779321413
 C        -3.0254376645        8.7163796472       -0.8130031028
 C        -4.4660211948        8.0868612689       -0.4963076143
 O        -4.5707000467        6.8839041663       -0.5884548602
 C        -5.7059670306        8.9406265176       -0.0003791426
 C        -6.9659373753        8.8550109664       -0.8827767154
 C        -8.2546632516        8.3079682507       -0.2078633709
 O        -8.3230464983        8.0342901406        0.9891584633
 C        -9.5033731949        8.0696374478       -1.2318023864
 C       -10.6966402509        7.2819941648       -0.4534326073
 O       -10.9446213514        6.0956877804       -0.7361018384
 C       -11.3549510424        8.1468738922        0.5698346183
 C       -11.8295939124        7.3475883021        1.7378522116
 C       -13.1669719519        6.6868401140        1.3299435336
 O       -13.8035315502        7.1151139102        0.4339198185
 C       -13.6978830579        5.4407702878        2.1145843865
 C       -13.6062019921        4.2146142862        1.0980872914
 O       -12.9285881601        3.2420943208        1.2958294810
 C       -14.5620731565        4.2621148323       -0.2171692858
 C       -13.6311504597        4.3060404302       -1.5238301211
 C       -13.0416369781        2.9632201897       -1.8106827827
 O       -13.4026872938        1.9353160355       -1.2531876702
 C       -11.8302872624        2.8980341848       -2.8432558932
 C       -10.5443157045        2.2456078205       -2.1187284116
 O       -10.6699394831        1.5328786568       -1.1139006397
 C        -9.1482210761        2.3451101651       -2.7128147451
 C        -8.0483970947        1.9692407019       -1.7201781811
 C        -8.2615089792        0.5233879032       -1.1946327683
 O        -8.3561979592       -0.3870712238       -2.0485289427
 C        -8.3332872628        0.1335981299        0.3273950044
 C        -9.5248628572       -0.8642780117        0.4463526958
 O       -10.4950808624       -0.6358547174        1.1682064302
 C        -9.5572649532       -2.2437279264       -0.3220299449
 C       -10.5092435461       -3.2710640688        0.2741382968
 C       -11.2548263590       -2.9478724655        1.7206755939
 O       -10.8158242328       -3.2913379935        2.8062382003
 C       -12.7259419854       -2.2403450890        1.6971940650
 C       -12.8704496670       -1.0881066685        2.7775269749
 O       -13.0395699957        0.1109270911        2.5518264887
 C       -12.8401875371       -1.4685142758        4.2394022100
 C       -13.1495352484       -1.6927510679        0.3954208723
 C       -13.6156974236       -3.3814482057        2.1324929258
 C        -7.0061127217       -0.4891152344        0.7007009079
 C        -8.7162280440        1.3041128461        1.3410578513
 C       -12.1891182902        1.9806348286       -4.0312391034
 C       -11.4275333934        4.3090101662       -3.4905360252
 C       -12.9111313192        5.0501948016        3.3463766325
 C       -15.2290303226        5.6277096083        2.4232756152
 C        -9.9585311344        9.5011453814       -1.6487216123
 C        -9.1153034555        7.2426904268       -2.4674865852
 C        -2.0327750780        7.5644849105       -1.1431709456
 C        -2.6691858950        9.4495244557        0.5229212196
 H        -1.0628595186        9.7979643972       -2.1735150087
 H        -1.7294216923       11.3950210236       -1.6155836801
 H        -1.9406031613       10.8870508369       -3.2736862201
 H        -5.4250731523       10.0006528938        0.0733207722
 H        -5.9438757500        8.5783627373        0.9784419393
 H        -6.7833654039        8.1222370779       -1.6426049064
 H        -7.1604844830        9.7956560808       -1.4099821186
 H       -12.3156394835        8.6003356714        0.1700026302
 H       -10.7534840766        8.9982667677        0.9167072876
 H       -12.0112709131        7.9780452638        2.5631211063
 H       -11.0862486974        6.5954184043        2.1179875999
 H       -15.1875288614        5.1452074606       -0.1943311138
 H       -15.2459492770        3.3658405273       -0.2222450313
 H       -12.8224692825        5.0339904083       -1.3145364607
 H       -14.2344773299        4.6297317172       -2.4480940101
 H        -8.9389923276        3.2489705979       -3.2706941474
 H        -9.2317423673        1.5689554351       -3.4739313695
 H        -8.0098183957        2.6697255033       -0.8542975170
 H        -7.0627789986        2.1075893948       -2.1646848693
 H        -8.5742893165       -2.7082002101       -0.3409074219
 H        -9.9110516721       -1.9184028469       -1.3311976035
 H        -9.9806860665       -4.1897630944        0.5086765936
 H       -11.3104911256       -3.6304558173       -0.3820821826
 H       -13.5396781299       -2.2039955485        4.6212483054
 H       -12.8285062119       -0.6246114582        4.9444399181
 H       -11.8543996260       -1.9904671527        4.5082053272
 H       -13.4131439197       -2.5337693832       -0.2677498970
 H       -12.3955219034       -1.1784264808       -0.1254140077
 H       -14.0179185534       -1.0487233237        0.4313918780
 H       -14.5670080479       -2.9804496195        2.2609238388
 H       -13.2035574224       -3.9051176007        2.9724137836
 H       -13.7561597683       -4.0698627900        1.2829209206
 H        -6.8618698555       -0.6765637153        1.7742915482
 H        -6.2020209746        0.1262093867        0.3853605016
 H        -6.8951356503       -1.4203893412        0.1889312767
 H        -9.4700233592        2.0117810577        0.9433214503
 H        -7.8968279683        1.9201121170        1.6915148427
 H        -9.1017984967        0.8748796400        2.2733467418
 H       -12.2504178565        0.9458489577       -3.8196978127
 H       -11.3800501937        2.1269137941       -4.7217904050
 H       -13.2136649819        2.2493099349       -4.4588841799
 H       -10.8635427150        4.8764179483       -2.7461933006
 H       -12.2410072292        4.8797397167       -3.9382759340
 H       -10.8955225827        4.0980416689       -4.4779904025
 H       -13.3608774705        4.2620642646        3.9627613818
 H       -12.6834248257        5.8621567326        3.9456135423
 H       -12.0155616041        4.5764839103        3.0180817316
 H       -15.6470025555        4.6308008500        2.5439368575
 H       -15.7148137317        6.2772455369        1.7569350684
 H       -15.2628761916        6.0957524949        3.3519174200
 H        -9.1014142389       10.0356245166       -2.0120371570
 H       -10.3675757595       10.0866920911       -0.8956277858
 H       -10.7159107579        9.4165585076       -2.4332371056
 H        -9.8312999260        7.3452585692       -3.2567091401
 H        -9.1284935113        6.1547293016       -2.2379194656
 H        -8.1117693396        7.4837811961       -2.8351539966
 H        -0.9788163312        7.8432504011       -1.0463968775
 H        -2.1177593241        7.1399304709       -2.1283630161
 H        -2.2191035192        6.6497784782       -0.5240684412
 H        -2.1236184477        8.7659128450        1.1990163769
 H        -3.6088891707        9.6590556501        1.1142395914
 H        -2.0704800470       10.3147625786        0.3232521818
 Na      -12.2075436189        1.1532958703        0.5597218003
