117

 C        -9.5787927535       -0.8459527615       10.3546974919
 C        -8.3856532964       -0.0061913570       10.1017002051
 O        -8.3898884110        1.0930725625       10.6170173491
 C        -7.1990281850       -0.5193236181        9.2067856352
 C        -7.7869647028       -0.4097281357        7.7245709255
 O        -8.9236396756       -0.7343972624        7.3749335818
 C        -6.7974188394        0.2216880796        6.7276181236
 C        -7.3833608991        0.1657999751        5.2503955116
 C        -6.5087264471        0.6240585855        4.1116297119
 O        -5.3292776145        0.8178787760        4.1210112876
 C        -7.3029610088        0.7622113339        2.6763439306
 C        -7.6525780855        2.3170602408        2.5606637182
 O        -8.5747723782        2.7719609180        3.2009417647
 C        -7.0291625634        3.3617833492        1.6722541922
 C        -7.7490271376        4.7112557455        1.8384337132
 C        -9.0056605364        4.8904530997        0.8446591018
 O        -8.8992427016        4.6555143819       -0.3213706952
 C       -10.4131179871        5.2628448692        1.4635528636
 C       -11.6179039597        4.9789566520        0.5330842722
 O       -11.7318985894        5.5492076760       -0.5335928879
 C       -12.7356616507        3.9989211668        1.0476917434
 C       -13.7431856563        3.3275906855        0.0342192852
 C       -13.1447166385        2.1638951133       -0.7555086226
 O       -12.4261290230        1.4024233440       -0.1751287257
 C       -13.2623482335        1.9282876443       -2.2688635213
 C       -12.2470431917        2.8311980016       -2.9629931381
 O       -11.7512467022        3.7843611688       -2.3715285629
 C       -11.9595518831        2.5763049708       -4.3993441476
 C       -11.0883969624        3.6291930685       -5.0903875780
 C       -11.7887896153        4.1847455819       -6.3743700227
 O       -12.9307370975        4.0314495062       -6.5993813495
 C       -10.8559506725        4.8895486966       -7.3398940620
 C       -10.5579885687        6.3220493322       -6.7844185033
 O        -9.4672805589        6.8297436511       -6.6101488484
 C       -11.7432188876        7.2233708506       -6.5648893575
 C       -11.2352261296        8.3465120735       -5.6776439353
 C       -10.4977380347        7.8006424572       -4.3683792134
 O       -11.0534829771        6.8269419229       -3.8940452915
 C        -9.2532762777        8.5439751852       -3.6749624850
 C        -8.0452087150        7.5732807513       -3.9034901071
 O        -8.0066349753        6.4247525289       -3.3397770925
 C        -6.9802406263        7.9527676432       -4.7787225524
 C        -9.1762042898        9.9670130828       -4.3256475685
 C        -9.5222242927        8.8078024577       -2.1529777911
 C        -9.5022382634        4.1247084564       -7.6329382190
 C       -11.6342722209        5.0385881122       -8.6742703837
 C       -12.8818746013        0.3554831149       -2.4334854988
 C       -14.5836912658        2.2403047008       -2.9770024635
 C       -10.6745498392        4.6209686183        2.8145511937
 C       -10.5000011639        6.8315328873        1.5122664083
 C        -6.3022127437        0.2887402780        1.4936060263
 C        -8.6749422413       -0.0705207372        2.5594737257
 C        -5.8870139286        0.3474049731        9.5154961667
 C        -6.7814821368       -1.9573894062        9.6057282101
 H        -9.4080279219       -1.7384362029        9.8668177974
 H       -10.4808262917       -0.3483114325       10.0082014943
 H        -9.6786945391       -0.9133069506       11.4110577755
 H        -5.7914512123       -0.1658160546        6.8085114510
 H        -6.5492769698        1.2472320997        6.9923673660
 H        -8.2592991138        0.8683152508        5.2222391572
 H        -7.6444265093       -0.9423492672        4.9874327364
 H        -6.9719722455        3.1819874416        0.5574251876
 H        -5.9270979126        3.5851626148        1.8830915591
 H        -7.1159984416        5.4949569305        1.4648256406
 H        -7.9857495288        4.9365463591        2.9248660507
 H       -13.4396466394        4.5647636682        1.6708091398
 H       -12.1970330390        3.2317646944        1.4700253100
 H       -14.1963590387        4.0142587460       -0.6686599099
 H       -14.5451161337        2.9249095976        0.7484576224
 H       -12.8879641440        2.5362549596       -4.8452255192
 H       -11.5415541132        1.5932545886       -4.4845790770
 H       -10.1369933362        3.2622343659       -5.3670328665
 H       -10.9104420100        4.3801953481       -4.3682607057
 H       -12.5681899924        6.6127321166       -6.1519015087
 H       -12.0309705796        7.6498501800       -7.5363730705
 H       -12.1069478422        8.8815944801       -5.3909548247
 H       -10.5365974703        9.0316281153       -6.1211817432
 H        -7.2642973080        7.8719913734       -5.7785352789
 H        -6.0601798245        7.3867336956       -4.5909886375
 H        -6.7656393667        8.9850245847       -4.5175380612
 H       -10.2804890525       10.3616043545       -4.4474727615
 H        -8.8282918243        9.9632973015       -5.3156739664
 H        -8.5521394692       10.6231755546       -3.7316193228
 H        -9.0227717170        7.9850149009       -1.7189444499
 H       -10.5269226257        8.9036267023       -1.8454472131
 H        -9.0082203997        9.7386288312       -1.7765529727
 H        -9.5357535994        3.0307403645       -7.5046481866
 H        -8.8017692553        4.5359606745       -6.8883639927
 H        -9.2472087897        4.3678978746       -8.6499961191
 H       -11.8689878236        4.0148512384       -9.0920033596
 H       -10.9493722927        5.5325817130       -9.4221580137
 H       -12.5887158617        5.5978771768       -8.5561370399
 H       -13.0424080358       -0.0058997033       -1.4315058647
 H       -11.8541211572        0.1882904480       -2.5711547292
 H       -13.3488032626       -0.1692068516       -3.2549069425
 H       -15.4589464572        1.7849429931       -2.5949482433
 H       -14.4028900165        2.0507839699       -4.0949179548
 H       -14.9755042483        3.3148500634       -2.9749008603
 H       -11.7872270586        4.7631346010        2.9925577502
 H       -10.0828392412        5.1090075753        3.4620961185
 H       -10.4939677961        3.5105286732        2.8355113803
 H       -10.2692075147        7.3493832214        0.5830172049
 H        -9.8605747539        7.1758387884        2.2719834285
 H       -11.4578459818        7.0780790072        1.8876096467
 H        -6.4831379517       -0.7455571048        1.2734634813
 H        -5.2562407846        0.3785472827        1.8181071167
 H        -6.4902987967        0.7568648321        0.5527750113
 H        -9.3878299072        0.4588333103        3.2148502707
 H        -8.4248272532       -1.1028531334        2.8465302587
 H        -8.9621186880        0.0457654921        1.4957357841
 H        -5.8755589738        1.3758469411        9.1499654025
 H        -5.0308217017       -0.1742769959        9.0360666497
 H        -5.8398502567        0.3673143982       10.6381255745
 H        -7.7149301424       -2.5286494150        9.7831661538
 H        -6.2874728120       -1.7860742757       10.6285371652
 H        -6.1792645740       -2.5210083675        8.8453400913
 Na       -9.8806809120        5.3213352594       -2.2523626533
