117

 C        -2.0517670180       10.5263700506       -1.9605073122
 C        -3.2448925870        9.5464954053       -1.8496955210
 O        -4.1802635262        9.6257298406       -2.6300561635
 C        -3.1442234537        8.5699541213       -0.6394808928
 C        -4.5850600666        8.0173327885       -0.4187029103
 O        -4.8658426546        6.8367395603       -0.4172052092
 C        -5.7010580309        9.0252869903       -0.0148277526
 C        -6.8168557028        9.0453102472       -1.1222993383
 C        -8.1159865699        8.3899441651       -0.5965882077
 O        -8.1635436679        7.8906102588        0.5122105956
 C        -9.3555147384        8.1394942509       -1.5119684894
 C       -10.5713661687        7.4724892899       -0.6910792961
 O       -11.1305238628        6.4551232860       -1.1072083194
 C       -11.0202109717        8.0780486278        0.6274723231
 C       -11.7405821654        7.0786993956        1.5709621600
 C       -13.1076082437        6.7097921939        1.2465690329
 O       -13.8104492078        7.1547605058        0.4019293799
 C       -13.8368389541        5.3733636779        2.1759652972
 C       -13.6700514986        4.1753137137        1.2203898292
 O       -12.7978681026        3.3918623307        1.4575644363
 C       -14.4808274419        4.2213539303       -0.1626169195
 C       -13.5110810839        4.1968794362       -1.3712637610
 C       -13.0657507907        2.8444504483       -1.9312986284
 O       -13.4722795463        1.7769321821       -1.3956250545
 C       -11.9475402854        2.8446173420       -2.9466498510
 C       -10.6958176683        2.1709748884       -2.1462202728
 O       -10.8534093700        1.6322476723       -1.0388058658
 C        -9.2782718821        2.2086323437       -2.7748634558
 C        -8.2516396436        2.0337185212       -1.6587261714
 C        -8.0665773147        0.5533843478       -1.1979500304
 O        -7.8388598286       -0.3046589625       -2.0461873546
 C        -8.2356543046        0.1539695627        0.3905867456
 C        -9.5620512775       -0.7676338322        0.6405119776
 O       -10.4225296033       -0.3535356687        1.3819702720
 C        -9.6902304774       -2.1646046557       -0.0216908074
 C       -10.6760470548       -3.2363126318        0.5352785946
 C       -11.3780998757       -2.8096451766        1.8116215232
 O       -10.8998485658       -3.0208371706        2.9104667458
 C       -12.8783025244       -2.2148857507        1.7300502603
 C       -12.9088322080       -1.0823061394        2.9416342133
 O       -12.8449894766        0.1025239034        2.6402149454
 C       -12.9185488834       -1.6085385690        4.3039640007
 C       -13.1817426405       -1.6965578561        0.3606059567
 C       -13.8629801119       -3.4227845121        1.9919291524
 C        -7.0065614601       -0.7474908989        0.6780807091
 C        -8.2083738842        1.3695547476        1.2513217946
 C       -12.4309741316        1.7876074676       -3.9948065848
 C       -11.4767211239        4.1781203583       -3.6335575615
 C       -13.1292134127        5.2707302076        3.5244028832
 C       -15.2377076001        5.8501881700        2.3489477216
 C        -9.7577810381        9.4219680849       -2.2630980008
 C        -9.0059454927        7.1586750789       -2.6539393825
 C        -2.2402421376        7.4409750528       -1.1905980929
 C        -2.5750012470        9.1581956991        0.6980271484
 H        -1.0823914755       10.1340385966       -1.8028033910
 H        -2.2688673674       11.2867555999       -1.1340695811
 H        -2.1330834454       11.0733967460       -2.8746508093
 H        -5.3113887618       10.0440067688        0.1886093757
 H        -6.1635311626        8.6428228561        0.9342088845
 H        -6.5253132355        8.4030770503       -1.9986810562
 H        -7.0409491921       10.0183962899       -1.5971199550
 H       -11.6024982894        8.9848492607        0.5279230118
 H       -10.1736903239        8.4073012485        1.2243310258
 H       -11.8916832880        7.4883886618        2.5394854578
 H       -10.9565548265        6.2649091484        1.7467036991
 H       -15.1689348782        5.0546111860       -0.2634045607
 H       -15.0742541606        3.3290992362       -0.2164219318
 H       -12.5798823535        4.6609430934       -1.0667056923
 H       -13.9493010387        4.8277663928       -2.1266415540
 H        -9.1870983378        3.1825387372       -3.3836238636
 H        -9.2366551261        1.4633206869       -3.5338668462
 H        -8.4459913460        2.6883242498       -0.8087040666
 H        -7.2461591389        2.3634164328       -1.9101085885
 H        -8.7326544317       -2.6132359982        0.0241126759
 H       -10.0143263774       -1.8458438400       -1.0731893501
 H       -10.1774027682       -4.1648573997        0.6864188511
 H       -11.4706384037       -3.4316104855       -0.2135274158
 H       -13.8877601106       -2.0114098915        4.4987283059
 H       -12.8443687170       -0.8949746460        5.1050204923
 H       -12.2588923492       -2.4559391172        4.5326574631
 H       -13.5337310354       -2.4115445700       -0.3507575211
 H       -12.3822320571       -1.0675473923       -0.0540802791
 H       -14.0860718718       -0.9708196415        0.3707652466
 H       -14.8803426641       -3.0683423033        2.0564331148
 H       -13.5074980330       -4.0210548822        2.8518163388
 H       -13.7811691754       -4.1679939797        1.1472875587
 H        -7.1956995227       -1.4750207335        1.5347220388
 H        -6.0499118562       -0.2112135652        0.9778997288
 H        -6.7206417139       -1.2494416960       -0.1878618662
 H        -9.1974128007        1.8097423013        1.3617977617
 H        -7.6514291731        2.2605375902        0.9320507902
 H        -7.8729108282        1.0693078749        2.2293822812
 H       -13.3023335856        1.2732796111       -3.7011091363
 H       -11.6564243963        1.0497632529       -4.2319503220
 H       -12.7116680781        2.4281507331       -4.9062207496
 H       -11.0148307249        4.8560907774       -2.9065027685
 H       -12.2935268824        4.7126979524       -4.0472127295
 H       -10.8166535712        3.8610486061       -4.4223683653
 H       -13.2691963691        4.2691803648        4.0624732859
 H       -13.4357091680        6.0343421240        4.2398192689
 H       -12.0243374736        5.3669212226        3.3720573284
 H       -15.7996242046        5.1168216471        2.9942991691
 H       -15.7935360899        6.0398822108        1.3723681515
 H       -15.1640250199        6.7781491051        2.9444844982
 H        -9.0500360780        9.6503862540       -3.1460253956
 H        -9.6085367658       10.3237032439       -1.6869817074
 H       -10.7813097286        9.3109322046       -2.6162807362
 H        -9.9050417425        6.6093413136       -2.9032972654
 H        -8.2024696362        6.4438028133       -2.3914361368
 H        -8.5521968732        7.6642080037       -3.4743389912
 H        -1.3201858966        7.1914169429       -0.6842907545
 H        -1.9789819761        7.5040859858       -2.2177892179
 H        -2.8319328689        6.5327885936       -1.0985700446
 H        -2.9888322119        8.5380983940        1.4650522775
 H        -2.8821292958       10.1675057352        0.9120459134
 H        -1.4826678457        9.1939081927        0.6600487541
 Na      -12.1506627304        1.3099797099        0.8937799591
