117

 C        -2.2391821624       10.6388341260       -1.7699435761
 C        -3.1866571386        9.5231920077       -1.7493357593
 O        -4.0986846263        9.5327516631       -2.5509079776
 C        -3.2013653729        8.4193671954       -0.6129678104
 C        -4.7833254681        7.9041471725       -0.4270641426
 O        -5.1365117776        6.7685035339       -0.3641950248
 C        -5.7139893452        9.1342436755       -0.2758556833
 C        -6.8387355218        9.1464286732       -1.2368043904
 C        -8.0047229314        8.2842159303       -0.7484718357
 O        -8.0157736296        7.7796609479        0.3293937215
 C        -9.2475703371        8.0530038181       -1.6830580069
 C       -10.4842040364        7.4783043834       -0.8829846203
 O       -11.1389771022        6.6171266525       -1.3918849578
 C       -10.8645516472        8.0325359414        0.4924822507
 C       -11.6181288702        7.0482924918        1.4560469196
 C       -13.1008552212        6.8036425397        1.2222860932
 O       -13.6735177350        7.3767866663        0.3080343419
 C       -13.8643438746        5.5978786070        2.0896704803
 C       -13.6286576320        4.3304215761        1.3472911518
 O       -12.6958565816        3.5341186120        1.7101042789
 C       -14.3959186586        4.0047174136        0.0722455008
 C       -13.5318503800        4.2512982403       -1.2690990457
 C       -13.1435693909        2.9024466858       -1.7977631224
 O       -13.6756490566        1.9068466994       -1.3842368444
 C       -11.9783412384        2.6194358628       -2.8894245773
 C       -10.6825996957        2.0307443952       -2.0884921958
 O       -10.7822043171        1.4731312931       -1.0291970089
 C        -9.2766876569        2.0219540282       -2.7440221471
 C        -8.2109930967        1.9668234534       -1.6735249215
 C        -8.0209303393        0.5146724194       -1.1638528026
 O        -7.8853506427       -0.3501972286       -1.9537629101
 C        -8.0972787764        0.1563230830        0.3950162119
 C        -9.4540074307       -0.6234348757        0.6509365841
 O       -10.3462513660       -0.1120604530        1.2897844338
 C        -9.4839691779       -1.9940065400       -0.0816126847
 C       -10.6068962033       -2.9629351614        0.4365049202
 C       -11.3468463921       -2.6983137124        1.8571604064
 O       -10.8423823602       -2.9070699304        2.9349901597
 C       -12.8797593534       -2.1921929398        1.8047698233
 C       -13.1155460082       -1.1261809749        2.9401809735
 O       -13.0330471851        0.0710676106        2.7369638566
 C       -13.2658214345       -1.6451154870        4.3676523609
 C       -13.2777415016       -1.4798838185        0.4817485012
 C       -13.8670717878       -3.3985129446        2.0675582846
 C        -6.8988713697       -0.9072428664        0.6180529893
 C        -8.0399710321        1.3044688805        1.3944530280
 C       -12.3213645998        1.5152766721       -3.9144041588
 C       -11.6390046377        3.9508402349       -3.6166913232
 C       -13.1937119080        5.4262052558        3.4497133487
 C       -15.3870528306        5.9611476452        2.3110463216
 C        -9.6927180455        9.3845246706       -2.2659359582
 C        -8.8318278395        7.0478070461       -2.7854561589
 C        -2.4223644674        7.1899815507       -1.1373441465
 C        -2.6279763926        8.9952758142        0.7970777916
 H        -1.2081283251       10.2325387028       -1.5639256258
 H        -2.4439142353       11.3111442488       -0.9977095878
 H        -2.1945395361       11.1539581788       -2.7725823195
 H        -5.1553569660       10.0560696706       -0.4111031605
 H        -6.0916354269        9.1584534601        0.7433013436
 H        -6.5677455143        8.8806935442       -2.2406024832
 H        -7.2011336493       10.1667559531       -1.3606563956
 H       -11.4818414753        8.9755116051        0.4866071148
 H        -9.9935149846        8.3600439974        1.0953664765
 H       -11.3601623551        7.2439010687        2.5370441189
 H       -11.1358880752        6.1543792944        1.2337206676
 H       -15.3065607063        4.6270280001       -0.0188510094
 H       -14.7379026761        2.9436027768        0.1104899187
 H       -12.6223945015        4.8981696826       -1.0742802609
 H       -14.1538852144        4.8015395085       -2.0400407003
 H        -9.2071167119        2.9172940632       -3.2599160816
 H        -9.1785320318        1.2581094812       -3.5568437717
 H        -8.4414226044        2.5878375307       -0.8090009283
 H        -7.2610164880        2.3968477932       -2.0236550745
 H        -8.4921536039       -2.5066268553        0.0971524757
 H        -9.7066558265       -1.8078066273       -1.0957610157
 H       -10.0997162844       -3.9626994616        0.6086726525
 H       -11.3271418582       -3.0491134579       -0.3711264189
 H       -14.2410587335       -2.0005033558        4.8059101804
 H       -13.0159489119       -0.8740427490        5.1362236248
 H       -12.6019407514       -2.4805842011        4.5134098257
 H       -13.3760207123       -2.0917018695       -0.4184968960
 H       -12.5131661876       -0.7323807544        0.3314878634
 H       -14.1670689597       -0.9572879215        0.4703406880
 H       -14.8748963776       -2.9552744418        2.0845916013
 H       -13.6950349935       -3.7777408308        3.0657867178
 H       -13.7812985692       -4.2055394909        1.4137208532
 H        -6.9839926069       -1.3327494055        1.5589785337
 H        -5.9782123866       -0.3422162264        0.6505069257
 H        -6.6427329494       -1.6227876215       -0.1915249486
 H        -8.7928657415        2.0898302004        1.2748302476
 H        -7.1571967552        1.9240137950        1.2544900653
 H        -8.0462577341        0.9125716923        2.4287511224
 H       -12.5421188120        0.5931503848       -3.2653819553
 H       -11.4050292772        1.2526122389       -4.5005411918
 H       -13.1138049138        1.7630052298       -4.5543377501
 H       -11.2282870911        4.7142962607       -2.9217025588
 H       -12.6287553957        4.4449639415       -3.8661677156
 H       -10.9449402337        3.7766464940       -4.4518421745
 H       -13.7636008518        4.7842557133        4.0600888509
 H       -13.1608668258        6.4064049219        3.9803299390
 H       -12.1754555469        5.0669087867        3.4034783208
 H       -15.9038255103        5.2438541016        2.8689969114
 H       -15.8057128429        5.9685578950        1.3337408054
 H       -15.4851970570        6.9154999933        2.8035078815
 H        -8.9152694455        9.9811423704       -2.6270772460
 H       -10.1271282755        9.9249614586       -1.4255290611
 H       -10.3831915254        9.2592627986       -3.0556039684
 H        -9.7662461140        6.7721000071       -3.2791830883
 H        -8.3490335492        6.2095508464       -2.3437900200
 H        -8.0801878428        7.4374540163       -3.4773591705
 H        -1.4445689044        7.0332727859       -0.6898745963
 H        -2.2345087655        7.2751882914       -2.2239306520
 H        -2.8738518289        6.2339087325       -0.9069357785
 H        -2.9728192318        8.3549016594        1.6121255190
 H        -2.8987667484       10.0363478847        0.9475394856
 H        -1.5306298957        9.1002712224        0.8023502315
 Na      -12.2082545134        1.3613723468        0.7796295982
