117

 C        -2.1965381958       10.6686728649       -1.6465284156
 C        -3.2451693567        9.4908892434       -1.6962609895
 O        -4.0166799434        9.4582093523       -2.6069050962
 C        -3.2811560042        8.3122357802       -0.5975645857
 C        -4.7683398639        7.9436201255       -0.4088850307
 O        -5.2283523693        6.8196810817       -0.3590951900
 C        -5.7133722383        9.2245183116       -0.3249160996
 C        -6.9196367880        9.1870757113       -1.2525811699
 C        -8.0051531946        8.2165227370       -0.7184251081
 O        -7.8999032332        7.6546243636        0.3472983040
 C        -9.2594023144        7.9815109107       -1.6667369344
 C       -10.4351621310        7.4030792568       -0.9510915630
 O       -11.1759241610        6.5966817502       -1.4933049120
 C       -10.9125389418        8.0333229035        0.3843700598
 C       -11.5041260677        6.9515925416        1.2778375290
 C       -12.9983076687        6.8270836245        1.0827306488
 O       -13.6822814342        7.4872837550        0.3327621721
 C       -13.7868840406        5.7178165038        2.0653524212
 C       -13.5098778796        4.3537642221        1.3585759156
 O       -12.6661807279        3.5651850778        1.7828212773
 C       -14.3545945795        4.0690917668        0.0257430755
 C       -13.5215125290        4.1709944316       -1.2800194392
 C       -13.1330629030        2.7290945396       -1.8062313834
 O       -13.7169515115        1.7497752382       -1.3142588256
 C       -11.9592416431        2.5372182520       -2.7827459875
 C       -10.6735162048        2.0250470906       -2.0951020389
 O       -10.7306271398        1.3963513188       -1.0181132084
 C        -9.2695566467        2.0798329367       -2.7460501261
 C        -8.2231365160        1.9701840986       -1.6153161643
 C        -8.0363970673        0.4513484198       -1.1165352295
 O        -7.9573435157       -0.4389902821       -1.9334185726
 C        -7.9438355415        0.1712820444        0.4380650261
 C        -9.3557816512       -0.6216882201        0.6433066437
 O       -10.3286731179       -0.1279378666        1.1669498678
 C        -9.5266869536       -1.9702993961        0.0121286157
 C       -10.6871738564       -2.9439603159        0.5051024575
 C       -11.3811784394       -2.5401899120        1.7741596363
 O       -10.8245076772       -2.8484845447        2.7917566624
 C       -12.9082484151       -2.0919349648        1.8539017765
 C       -13.0490500450       -1.0727223108        2.9805261535
 O       -13.1538657324        0.1299648215        2.7390635691
 C       -13.3678790600       -1.5479019449        4.3723114165
 C       -13.3728269206       -1.5144655247        0.4932595750
 C       -13.7555537560       -3.3779149439        2.0398080959
 C        -6.7702673274       -0.7741429182        0.6410741498
 C        -7.8961745801        1.3213940200        1.3892695763
 C       -12.3728665252        1.4249009643       -3.7641242083
 C       -11.6775905225        3.9247883153       -3.5591536605
 C       -13.2180693515        5.6408335408        3.5490731779
 C       -15.2784964461        6.0504529753        2.2032311382
 C        -9.8000854922        9.3290921092       -2.2964188446
 C        -8.7625725688        7.0985793564       -2.8454104895
 C        -2.4635084481        7.1016910893       -1.0376977711
 C        -2.7091997721        8.8159271957        0.7061239990
 H        -1.1576695048       10.4752430260       -1.4193080858
 H        -2.5166195437       11.3699045100       -0.8838806595
 H        -2.2009319094       11.1597131901       -2.6351191480
 H        -5.2287569196       10.1623451840       -0.3744817771
 H        -6.1299342697        9.1603075735        0.6785110739
 H        -6.7194395945        9.0072291149       -2.3125154643
 H        -7.3839679629       10.1436514247       -1.2786575787
 H       -11.7287699799        8.7179474173        0.3755832108
 H       -10.1791104744        8.5765201052        0.9873873504
 H       -11.3213847577        7.2541770372        2.3421699050
 H       -10.9438151797        6.0100762870        1.1293137991
 H       -15.2374457434        4.7774165549       -0.0513867460
 H       -14.7711691079        3.0580271853        0.0788811679
 H       -12.6215807441        4.8003839660       -1.0631070411
 H       -14.0622958143        4.6635694689       -2.0584634615
 H        -9.1488879758        3.0119081804       -3.3612750065
 H        -9.1416941990        1.2818992111       -3.4654000757
 H        -8.3350309841        2.6434618944       -0.7699767477
 H        -7.2364908970        2.2582222367       -2.0509126376
 H        -8.6008910493       -2.4645154382        0.1859413248
 H        -9.7504367778       -1.8687350912       -1.0306866329
 H       -10.2093850724       -3.9392336688        0.6920212115
 H       -11.3928650066       -2.9382130622       -0.3675117521
 H       -14.4098735474       -1.9649549603        4.2142984084
 H       -13.5540440688       -0.8932292501        5.2437267169
 H       -12.8466863847       -2.4554162422        4.6686348777
 H       -13.7455250921       -2.2092202468       -0.1632392878
 H       -12.5838322773       -0.9577120523        0.0039146216
 H       -14.1822688340       -0.7623591888        0.5609816179
 H       -14.8140617206       -3.1435077446        2.0814013985
 H       -13.5178046559       -3.8050253704        3.0145502296
 H       -13.5272293680       -4.0972550195        1.2709310207
 H        -6.8121251374       -1.2198102187        1.6241830058
 H        -5.7369814398       -0.3078877214        0.5311868600
 H        -6.7709961094       -1.4750941427       -0.0853473499
 H        -8.3211660752        2.2653274583        1.1322900298
 H        -6.8303626762        1.6262865806        1.4144353870
 H        -8.1925805409        1.0576971658        2.3769821850
 H       -12.1639219229        0.5549033876       -3.2273304788
 H       -11.7877473181        1.4003230267       -4.6896258141
 H       -13.4255884151        1.4860821413       -4.0230586232
 H       -11.4223993715        4.8172483022       -2.8796096783
 H       -12.5918665454        4.2757445764       -4.0488222589
 H       -10.8402595706        3.7378779207       -4.1643447481
 H       -13.8754118190        5.2096965151        4.2575320936
 H       -12.9261159284        6.5889671527        3.9261933871
 H       -12.3199133746        5.0900918649        3.4826113825
 H       -15.8592538464        5.2508815349        2.5233046998
 H       -15.6258520672        6.2797999748        1.1891649974
 H       -15.4079547484        6.8493278638        2.8810755589
 H        -8.9375788232        9.9347520889       -2.7467990191
 H       -10.2982182201        9.9143400130       -1.5242653599
 H       -10.4132434251        9.1439218127       -3.1162810369
 H        -9.5698705764        7.1503979852       -3.6063693013
 H        -8.5407196335        6.0773847474       -2.5195415108
 H        -7.8371972191        7.4691326212       -3.2575184041
 H        -1.3851445304        7.1452010946       -0.7811194918
 H        -2.5075527288        7.0338156272       -2.1499900751
 H        -2.7142178660        6.1665398350       -0.5626772618
 H        -2.6458415512        7.9994536206        1.4350107883
 H        -3.2008681889        9.6944581153        1.0703203101
 H        -1.6634388077        9.2588331077        0.5099999029
 Na      -12.3730423483        1.4252855380        0.8709060624
