117

 C        -2.2155142082       10.5243541770       -1.4526324704
 C        -3.1216773240        9.3627940881       -1.7465224729
 O        -3.7815621235        9.3232809497       -2.7787465589
 C        -3.3213545086        8.2918841886       -0.5557261285
 C        -4.8491114783        8.0482237988       -0.3573040794
 O        -5.3037963321        6.9503600535       -0.4534321645
 C        -5.7424855164        9.2279377407       -0.1529266366
 C        -6.9623672255        9.2982098193       -1.1200678704
 C        -8.0746104070        8.1911683758       -0.7643167126
 O        -8.0707889400        7.4636524803        0.1811404613
 C        -9.2914505743        7.9720329206       -1.8307888072
 C       -10.5018843965        7.2787276072       -1.1105744046
 O       -11.0294027874        6.3146473830       -1.6452978452
 C       -10.8628761266        7.9661540729        0.1233359198
 C       -11.4159197444        6.9250538002        1.2155209427
 C       -12.9438019723        6.8822646343        1.1102361450
 O       -13.5492088841        7.6346167159        0.3595482037
 C       -13.7591566337        5.8081920626        2.0778932567
 C       -13.5570084068        4.3934053220        1.4414297160
 O       -12.6159245922        3.6469026625        1.7442928638
 C       -14.3664080246        4.1683994266        0.0468566767
 C       -13.4507628343        3.9689383168       -1.2096390026
 C       -13.0793599168        2.5589100501       -1.6001479535
 O       -13.4802636535        1.5577394596       -1.0609406311
 C       -11.9618212857        2.4007156256       -2.7191332821
 C       -10.6572048692        1.8961256189       -1.9110170077
 O       -10.7566943326        1.4143704076       -0.8270263031
 C        -9.2914460917        2.1351380595       -2.5280958565
 C        -8.0665809878        1.9411896171       -1.6359180162
 C        -8.0304747200        0.5210196008       -1.1457183953
 O        -8.1411686059       -0.4060846975       -1.9112814443
 C        -7.9425720402        0.1166258431        0.3593156407
 C        -9.3117144548       -0.6289601190        0.6681355642
 O       -10.2698858606       -0.1044135332        1.2028556447
 C        -9.3712768861       -2.0776798154        0.2392678208
 C       -10.8184781772       -2.6592642677        0.3828117931
 C       -11.4210489787       -2.3429241694        1.7468445217
 O       -10.7945534906       -2.5304635504        2.7668717038
 C       -13.0235911654       -2.0126269007        1.7951184479
 C       -13.1726851703       -0.9450259308        2.8682567250
 O       -13.2046925467        0.2622474175        2.6888430283
 C       -13.5197258614       -1.4564119977        4.2843493429
 C       -13.4871427587       -1.4072044818        0.4127723919
 C       -13.5813583986       -3.4139395751        2.1263086182
 C        -6.7256556087       -0.7998076158        0.6153846608
 C        -7.9121370608        1.3748521034        1.3608284151
 C       -12.4493906185        1.2955388484       -3.7224120528
 C       -11.7757418827        3.7119583205       -3.5594596021
 C       -13.0647826030        5.9195624626        3.4723783867
 C       -15.2937770713        6.2285822615        2.0222903511
 C        -9.6955398527        9.3297856439       -2.3366823881
 C        -8.7530282506        7.0475946262       -2.9630708565
 C        -2.6854528384        7.0085963084       -1.1451282607
 C        -2.7780036203        8.7076929979        0.8593093559
 H        -1.2168580972       10.1560322029       -1.1942621180
 H        -2.5709743175       11.0363629757       -0.5826381053
 H        -2.0395047862       11.1769413962       -2.2977833075
 H        -5.1657121479       10.1977136472       -0.2179410878
 H        -6.1022939929        9.1871673543        0.8925751125
 H        -6.7338700491        9.2316812038       -2.1851544503
 H        -7.4619579051       10.3105978877       -1.0356558152
 H       -11.7055620345        8.6657012957       -0.0125052745
 H       -10.0947058485        8.5925611435        0.5284352211
 H       -11.0310519101        7.2084330576        2.1962082076
 H       -10.9817065196        5.9505008359        0.9786465206
 H       -15.0304297740        4.9707358782       -0.0739567216
 H       -14.9294640963        3.2327788074        0.1456753769
 H       -12.5027276108        4.3701346567       -0.9637180393
 H       -13.7418701938        4.5158075625       -2.1203097139
 H        -9.2604759694        3.1386573329       -2.9072616828
 H        -9.2720256807        1.5253733252       -3.4741204310
 H        -8.0606981384        2.5866511452       -0.7506625201
 H        -7.1967040959        2.1611270277       -2.2410586397
 H        -8.6600921461       -2.7269802971        0.8319759937
 H        -9.1174507965       -2.1191702918       -0.8417902265
 H       -10.5575835114       -3.7040303669        0.4315394279
 H       -11.4019912649       -2.3747660152       -0.4504565515
 H       -14.4036449698       -2.0780105983        4.3890675099
 H       -13.8262472638       -0.6335894710        4.9249413155
 H       -12.7235398714       -2.0800608446        4.6995047124
 H       -13.7198446323       -2.2011243605       -0.4028380589
 H       -12.7583288940       -0.7241398658       -0.0707654420
 H       -14.3827349224       -0.8105252632        0.5005847666
 H       -14.6638042335       -3.4373265693        2.3957855841
 H       -13.1063181987       -3.7826762280        3.0508327286
 H       -13.3868310007       -4.0570898208        1.2483809970
 H        -6.6208663793       -1.1041698363        1.6682233540
 H        -5.8514364573       -0.2291724169        0.3839545953
 H        -6.6932599936       -1.7613046391       -0.0626005034
 H        -8.8055434100        2.0112359658        1.2765334261
 H        -7.0753324541        2.0323732181        1.2997330798
 H        -8.0115775934        1.0112059480        2.3985054321
 H       -12.1793838719        0.3037526007       -3.2375506885
 H       -11.9876301198        1.4194093634       -4.6786985597
 H       -13.4830466776        1.3796680867       -3.9235264316
 H       -11.3065212447        4.4230262839       -2.9718120778
 H       -12.7041516443        4.1196574171       -3.8820485379
 H       -11.0433464035        3.5320105071       -4.3388182064
 H       -13.6425496899        5.3797386964        4.2232182165
 H       -12.9994768464        6.9726408839        3.8274953516
 H       -12.0235390114        5.5642642701        3.4268974972
 H       -16.0044223271        5.3463080852        2.0567382016
 H       -15.4658419905        6.6522361684        1.0345223149
 H       -15.5916979106        6.9457778952        2.8447936125
 H        -9.0964627969        9.6388989583       -3.1480809850
 H        -9.7370740176       10.0421883234       -1.4664538830
 H       -10.7315345790        9.2777725049       -2.8311268221
 H        -9.3879132503        7.0957574766       -3.8372027054
 H        -8.6153436839        6.0394826725       -2.5601542130
 H        -7.7553413338        7.4367358997       -3.2852679394
 H        -1.7201097455        7.2335840614       -1.5579072385
 H        -3.2902903604        6.5901890096       -1.9267706855
 H        -2.3786154334        6.2608584900       -0.4089580334
 H        -2.5767389996        7.8427170647        1.4966546463
 H        -3.4481252595        9.4657966275        1.3137805762
 H        -1.8558423335        9.2080667207        0.8043558101
 Na      -12.4790144096        1.3671647238        0.9450873331
