117

 C        -2.1486237723       10.4876041713       -1.3196113539
 C        -3.1011115724        9.2921008670       -1.6844801626
 O        -3.4751724734        9.1919895084       -2.8376792597
 C        -3.4598623629        8.2608660155       -0.5533115229
 C        -4.9882938968        7.9938879002       -0.4255107812
 O        -5.4674795595        6.8902722196       -0.6111982057
 C        -5.9285676382        9.1093170797       -0.0033763435
 C        -7.0596337337        9.3379494549       -0.9812093980
 C        -8.0826397620        8.0995689492       -0.8905578505
 O        -8.1015177600        7.3347339096        0.0735474579
 C        -9.1661031056        7.9031199681       -2.0361167497
 C       -10.3179472145        7.2335502785       -1.2925394496
 O       -10.6492845337        6.0721608262       -1.5732519448
 C       -10.8485946805        7.9785556830        0.0004023729
 C       -11.4716228649        7.0414467242        1.0857152129
 C       -13.0169892140        7.0562314396        1.0343410914
 O       -13.7007966237        7.7238032235        0.3228981459
 C       -13.7191094633        5.8998665769        1.9874145006
 C       -13.5336105844        4.4537955248        1.3133443118
 O       -12.6897539658        3.7452471440        1.7801490687
 C       -14.3082140226        3.9890180270        0.0742815862
 C       -13.3728651620        4.0203676486       -1.1757655987
 C       -13.0116006481        2.5253451732       -1.4975311004
 O       -13.5528611376        1.6082114666       -0.8736331897
 C       -11.9320001221        2.3292118592       -2.5946394513
 C       -10.6338208322        1.9949466240       -1.9389318509
 O       -10.6037100607        1.6098644282       -0.7845445781
 C        -9.3197690371        2.2519019498       -2.6506556779
 C        -8.2215877999        1.9635816556       -1.6469393887
 C        -8.2317704423        0.5269054405       -1.1237608677
 O        -8.2294002863       -0.3807505521       -1.9556233319
 C        -8.0413589102        0.1822239816        0.3809181420
 C        -9.2489593744       -0.6715720251        0.8611877405
 O       -10.2446535655       -0.1077586984        1.3059441054
 C        -9.2992611738       -2.2182917805        0.6107667048
 C       -10.8198762286       -2.5074088331        0.3733965222
 C       -11.5034576559       -2.2279376933        1.7245814578
 O       -10.8168239406       -2.1565650585        2.7258042561
 C       -13.1026037379       -1.9790261731        1.7122493252
 C       -13.3244918920       -0.9282183032        2.9555140647
 O       -13.3401880290        0.2808016983        2.7044393178
 C       -13.5107938190       -1.3836109441        4.3245066457
 C       -13.7369496940       -1.5308177520        0.3718245836
 C       -13.7066931081       -3.3744860149        2.0841463657
 C        -6.6979214307       -0.6546282783        0.5683377888
 C        -7.9121965462        1.3937699779        1.2816060509
 C       -12.3354408590        1.0151030306       -3.3921792883
 C       -11.7773819517        3.5239521033       -3.5463086708
 C       -13.1082170202        5.7712697353        3.4170658428
 C       -15.1951342668        6.2818880879        2.1017408717
 C        -9.5819387244        9.2871981244       -2.5866775100
 C        -8.6678163598        7.1121377515       -3.2439301500
 C        -2.8125144588        6.9525640341       -1.1020413701
 C        -2.7668064564        8.6039636221        0.8059484334
 H        -1.0720913937       10.3573897871       -1.2436523006
 H        -2.5048005190       11.0004058036       -0.3635882308
 H        -2.2561032886       11.1947199278       -2.1358791120
 H        -5.4208944615       10.0344815845        0.1964646107
 H        -6.3649144358        8.7630498581        0.9502116898
 H        -6.7203061025        9.4872791750       -2.0250342050
 H        -7.5570016156       10.2474934253       -0.7050084409
 H       -11.6754699677        8.6486263111       -0.3199244863
 H       -10.1728789450        8.6656006213        0.5544640959
 H       -10.9992402953        7.2312818007        2.0290641913
 H       -11.0540891882        6.0856065709        0.7450495481
 H       -15.1177547321        4.7733203308       -0.0639155195
 H       -14.6881834863        2.9666955657        0.1945817783
 H       -12.4498975002        4.7229543688       -1.0738452883
 H       -13.9412323625        4.3978906245       -2.0399395421
 H        -9.2694414414        3.3493969590       -2.8790182987
 H        -9.3127800396        1.7501035219       -3.5712692414
 H        -8.3320081233        2.6722739229       -0.8209693989
 H        -7.2450118943        2.0626196129       -2.1578509207
 H        -9.0554467859       -2.7405132991        1.5339381375
 H        -8.6025654758       -2.5120357482       -0.1960312308
 H       -10.9680405141       -3.5142166984       -0.0273728171
 H       -11.1837408744       -1.6827953081       -0.2991166056
 H       -14.3615364611       -2.0648231843        4.4137860238
 H       -13.9016202701       -0.5530141701        4.8980953130
 H       -12.6336226714       -1.9459489009        4.6973815180
 H       -13.3995251691       -2.1153532542       -0.4160335966
 H       -13.5740230689       -0.5378781422        0.0330757889
 H       -14.8501583771       -1.6197946679        0.4730356327
 H       -14.7615648352       -3.3274806166        2.2314153187
 H       -13.3530699347       -3.7066095742        3.0402651277
 H       -13.5817462313       -4.0919991064        1.2722347581
 H        -6.8107773315       -1.2741998041        1.4502581573
 H        -5.7358519263       -0.1356258832        0.6328453449
 H        -6.7144341099       -1.3833581231       -0.1873857864
 H        -8.8782301564        1.7993350102        1.5901794802
 H        -7.2910711112        2.2361758397        0.8611518714
 H        -7.4477677412        1.1573223797        2.2356900384
 H       -12.8993854155        0.3572954521       -2.7960569124
 H       -11.4589983203        0.5548659481       -3.8956027727
 H       -12.9058278322        1.4225738707       -4.2982557218
 H       -11.3387628325        4.4772156204       -3.0922032010
 H       -12.8103938095        3.6470741476       -3.9560112280
 H       -11.1051600578        3.3060287138       -4.4109921591
 H       -13.6145694093        4.9161572095        3.9439536369
 H       -13.2330182884        6.6310653665        4.0561337739
 H       -12.0239474612        5.5783499794        3.3506572111
 H       -15.7106565825        5.4546784034        2.5533207446
 H       -15.7510643286        6.5498701260        1.1959226392
 H       -15.2435577679        7.1000389233        2.7912331805
 H        -8.6822145966        9.5868956290       -3.1435009936
 H        -9.8603077705        9.9527943620       -1.8515034913
 H       -10.3651173138        9.2593130849       -3.2932078618
 H        -9.5365293395        6.8589025837       -3.8449592589
 H        -8.1278727510        6.2173601233       -2.9345431512
 H        -8.1314684434        7.7793574161       -3.8716082915
 H        -1.7985846474        7.1221155018       -1.4788665803
 H        -3.4313123069        6.5209559498       -1.8751870803
 H        -2.6890491310        6.2017894722       -0.3384829751
 H        -3.1582671637        7.9663804716        1.5804644896
 H        -2.8641345910        9.6052045037        1.1611752825
 H        -1.7065004224        8.2653525030        0.8132357261
 Na      -12.1124001775        1.4396483436        1.0596129853
