117

 C        -9.3854312983       -0.9654231050       10.5409933539
 C        -8.2839992426        0.0793063726       10.2344210046
 O        -8.1544988111        1.2362155414       10.5569495724
 C        -7.1440453361       -0.4953382593        9.3121976975
 C        -7.6506635290       -0.3642499994        7.8233970131
 O        -8.7702479738       -0.7004729114        7.5652711549
 C        -6.7260683775        0.3093089549        6.7453865337
 C        -7.3806954523        0.1509036845        5.3688724700
 C        -6.5870872536        0.6812159603        4.0997196901
 O        -5.3776208928        0.7591553601        4.1375356420
 C        -7.2804733326        0.8766293050        2.5579498509
 C        -7.7670230612        2.3920742077        2.4524328388
 O        -8.6503063213        2.5705062059        3.2587014130
 C        -7.0857386490        3.4963001742        1.6035473292
 C        -7.9100705265        4.7951749893        1.8103414562
 C        -9.1146531989        4.9114891612        0.8980544497
 O        -8.8820662714        4.7723993354       -0.2924245740
 C       -10.5474767762        5.3204778398        1.4922650419
 C       -11.6222439877        4.8917385217        0.4518040254
 O       -11.7053400736        5.4855885149       -0.6172404142
 C       -12.8446713047        4.0006615432        0.9921944851
 C       -13.7698664701        3.4496372857       -0.0482342292
 C       -13.1933546327        2.0957208416       -0.6610538077
 O       -12.5821526472        1.3016687146       -0.0158807716
 C       -13.3412467373        1.8581010174       -2.2221045007
 C       -12.2860677564        2.7901742975       -3.0338908250
 O       -11.6825859232        3.6616362326       -2.4542823226
 C       -12.0376093683        2.4936529702       -4.5613882325
 C       -11.1380105933        3.5494192818       -5.1740196612
 C       -11.7963880404        4.0896803299       -6.3784164339
 O       -13.0280828983        4.0412877661       -6.4877337912
 C       -10.7763346155        4.9542740055       -7.4264422061
 C       -10.4869722150        6.3500144247       -6.9665160788
 O        -9.3204280268        6.6985965563       -6.7484965878
 C       -11.7386770182        7.2034796559       -6.4443408261
 C       -11.2513345471        8.3340479486       -5.6021771592
 C       -10.5626802099        7.7329087123       -4.3081097433
 O       -10.9968867498        6.8278713088       -3.6176217710
 C        -9.3211636988        8.4320076012       -3.8533960130
 C        -8.0199633765        7.5352219829       -3.9827081377
 O        -8.0771420991        6.4782340877       -3.4216199190
 C        -6.8109454308        7.9723028046       -4.8173316158
 C        -9.1288076523        9.8422681408       -4.5836157764
 C        -9.6431050593        8.7139270222       -2.3193370558
 C        -9.4470479775        4.1793826412       -7.4803662965
 C       -11.5938981788        4.9944507346       -8.7567316051
 C       -12.9191789472        0.3475117392       -2.4415829645
 C       -14.7529467720        2.0709092858       -2.9237545914
 C       -10.7778852065        4.8146060920        2.9489761759
 C       -10.5348835113        6.9368905587        1.4227121890
 C        -6.2445647484        0.3145597653        1.6243564300
 C        -8.5626187059        0.0605593820        2.5763841122
 C        -5.9272188066        0.3856661377        9.4680781359
 C        -6.6411171753       -1.9476859685        9.5974717363
 H        -9.0298767900       -1.7431585348        9.8383739769
 H       -10.3210176539       -0.6016442102       10.2994432395
 H        -9.3901963403       -1.3249207807       11.5523191983
 H        -5.6682487631       -0.1789238847        6.8272425191
 H        -6.4239077213        1.3214765507        6.9152178369
 H        -8.4072434896        0.5749600744        5.4853880461
 H        -7.3449690785       -0.9397085897        5.1370838924
 H        -6.7968737200        3.2749074005        0.5638218681
 H        -6.0814757295        3.6971328420        2.0748145222
 H        -7.4320700022        5.7471940664        1.5429543555
 H        -8.1716754926        4.8148769012        2.9093613235
 H       -13.4473126858        4.7010799255        1.4810420100
 H       -12.4151684432        3.1807837849        1.6148874703
 H       -14.0048689799        4.1678637365       -0.8118281241
 H       -14.6724445091        3.2412103126        0.4604390877
 H       -13.0065193780        2.3660614511       -5.0392490090
 H       -11.5285171681        1.5211514191       -4.6117467872
 H       -10.1735324600        3.1205767726       -5.5515025195
 H       -10.9207349448        4.2689841687       -4.3798777373
 H       -12.3879652864        6.4432137602       -5.9137666653
 H       -12.2765887886        7.6531544873       -7.2957337663
 H       -12.1075741759        9.0225003767       -5.3686872381
 H       -10.3927463724        8.8873695349       -6.0915502932
 H        -7.2307642701        8.3852155651       -5.7575124728
 H        -6.1377463423        7.1337776446       -5.0559541862
 H        -6.1834919305        8.7253562200       -4.3062452450
 H        -9.9827559005       10.4971303848       -4.5227776265
 H        -8.9882116788        9.7210776631       -5.6606702186
 H        -8.1815848415       10.2936947116       -4.1575631009
 H        -9.2427245926        7.9218986817       -1.7459244871
 H       -10.6428094844        8.8869061026       -2.1442661929
 H        -9.1831764116        9.6203033680       -2.0011722020
 H        -9.6752863546        3.0460137396       -7.6088622666
 H        -8.8478467590        4.3321400158       -6.5976721050
 H        -8.9620087842        4.5455977901       -8.3878657913
 H       -11.9645945983        3.9817216538       -9.1511578387
 H       -11.0847938860        5.5577422627       -9.5727352072
 H       -12.5414617554        5.5303897110       -8.4421290695
 H       -13.3694848652       -0.1993502317       -1.6599038469
 H       -11.8642317401        0.2552893615       -2.1699471750
 H       -13.0230399560       -0.0251330884       -3.4414195114
 H       -15.5075457695        2.0206486047       -2.1489626703
 H       -14.9363296663        1.4167506805       -3.7961264629
 H       -15.0355176400        3.0689082883       -3.3305929823
 H       -11.8217322994        4.8177425399        3.1120570821
 H       -10.2023521359        5.5840156554        3.5153805241
 H       -10.4132049334        3.8100606775        3.1536365513
 H       -10.6909339774        7.2284922038        0.4055481126
 H        -9.5929256523        7.3505326343        1.7241143136
 H       -11.3042468194        7.3322889342        2.0867097126
 H        -6.2990450176       -0.7552950512        1.5397530162
 H        -5.2669073649        0.5822733410        2.0399752089
 H        -6.3778212815        0.6241336014        0.5655429289
 H        -9.0585967406        0.4793145108        3.4924310402
 H        -8.2676262406       -1.0198918063        2.5876340963
 H        -9.1724593917        0.3841334321        1.6697875194
 H        -6.1807118517        1.4324034641        9.1873553089
 H        -5.1142373647        0.0447944345        8.7739431363
 H        -5.6358601722        0.3762020570       10.4822019412
 H        -7.5584910805       -2.6066300426        9.5740523341
 H        -6.1001003647       -1.9499326646       10.5789822453
 H        -5.9899930464       -2.2779883120        8.7526053126
 Na       -9.9192386705        5.4271973512       -2.2613611000
