117

 C        -2.2851792675       10.4548941624       -1.2398993810
 C        -3.0174584672        9.2294200037       -1.6147297330
 O        -3.4516810371        9.0887378787       -2.7363559132
 C        -3.4284749680        8.0825010891       -0.5791422841
 C        -4.9488067998        7.9158298232       -0.5816536062
 O        -5.4759856237        6.8748392842       -0.9182489975
 C        -5.7788083570        9.0663255703        0.0128479002
 C        -6.9952249789        9.3129728007       -0.9315012747
 C        -7.9690162698        8.1035558423       -0.9497420483
 O        -7.9522603540        7.2311601924       -0.1264743367
 C        -9.1136507391        7.9460964202       -2.1251980276
 C       -10.2973693679        7.1601412678       -1.3416938537
 O       -10.4107191403        5.9660601268       -1.5184128774
 C       -11.1814082266        7.9144389081       -0.3684408959
 C       -11.5269877620        7.0357702189        0.8957286270
 C       -13.0394045557        6.9154264260        0.9808037431
 O       -13.8730468622        7.6482888251        0.4368935262
 C       -13.6574931473        5.8664593400        1.9597557268
 C       -13.5434928519        4.4694556930        1.2708584789
 O       -12.6277512768        3.7228449750        1.7052155521
 C       -14.3584653007        4.2354416285       -0.0043769648
 C       -13.5043504421        4.0765826558       -1.2124577869
 C       -13.0778301382        2.6162555209       -1.5029544501
 O       -13.5754272895        1.6914602043       -0.8782902763
 C       -11.9342103844        2.2777267459       -2.6544506387
 C       -10.5540066305        2.1757494243       -1.8751484544
 O       -10.5616907011        1.8571603371       -0.6780369047
 C        -9.2003648235        2.2439785202       -2.6350136033
 C        -8.0186961652        1.9669473440       -1.7000287301
 C        -8.1423892648        0.5690191197       -1.0690142132
 O        -8.4627530199       -0.3206525284       -1.7918736123
 C        -7.8517707604        0.3138523536        0.3966452378
 C        -9.2404396699       -0.4528224081        0.7887052006
 O       -10.1242968652        0.1261074061        1.3707094958
 C        -9.4033887956       -1.9924616475        0.5390904210
 C       -10.8408537027       -2.5741434449        0.6082331372
 C       -11.6624038034       -2.2415864200        1.8647575600
 O       -11.2089033389       -2.2772279645        2.9870930011
 C       -13.2781875547       -2.0276041773        1.7234647349
 C       -13.4779867749       -0.9200623405        2.8529034460
 O       -13.3902281663        0.2460777136        2.5349078178
 C       -13.5815721252       -1.3729785516        4.3231432450
 C       -13.8844447018       -1.5517821042        0.4246385269
 C       -13.8162384645       -3.3865865034        2.2351713461
 C        -6.6164902015       -0.5569911504        0.4592882973
 C        -7.7678944278        1.5286620985        1.3263833037
 C       -12.2096460106        0.8496151108       -3.1882882939
 C       -12.0120443663        3.3091281223       -3.7514227726
 C       -12.9833407300        5.9219622397        3.2933469564
 C       -15.1542628250        6.1938683774        2.1972305447
 C        -9.6724616258        9.2536377896       -2.6663652738
 C        -8.4862934131        7.0041229304       -3.2198679894
 C        -2.7943312632        6.7987744645       -1.0108675887
 C        -2.9474943087        8.4294375168        0.8177445840
 H        -1.3268589439       10.1812294345       -0.7738192771
 H        -2.7874843214       11.0482855086       -0.5717802358
 H        -2.0178078104       11.0367050927       -2.1413793859
 H        -5.1954693835        9.9638968497        0.2689884553
 H        -6.1899752492        8.6403850591        0.9108213730
 H        -6.7389333370        9.5554585181       -1.9466423274
 H        -7.6076634222       10.1486228707       -0.5206069984
 H       -12.1414738520        8.0986129284       -0.8115153261
 H       -10.8684307745        8.8614592783       -0.0221880989
 H       -11.1143075984        7.5222715187        1.8205155785
 H       -10.9369973818        6.1329457997        0.7651824216
 H       -15.0183283617        5.0645423742       -0.1515626287
 H       -14.8711168166        3.2687982038        0.1357974465
 H       -12.6428831232        4.6625390355       -1.2291227228
 H       -14.1056141156        4.4547495743       -2.0530419575
 H        -9.1401285548        3.1816118393       -3.1605354074
 H        -9.2739210150        1.3909840716       -3.4094077685
 H        -7.8797352001        2.7588389838       -0.9749146085
 H        -7.1425614859        1.7873588564       -2.3188960579
 H        -8.7075764774       -2.5091674582        1.2578902300
 H        -8.9587429574       -2.1670019079       -0.4183030763
 H       -10.8298448639       -3.6920097636        0.5751406740
 H       -11.2356479980       -2.1928345486       -0.3194786715
 H       -14.4683847439       -1.9840294989        4.5765987868
 H       -13.7249788721       -0.4863760165        4.9648412860
 H       -12.6962119249       -2.0064988564        4.4764182281
 H       -13.4983114841       -2.1347397622       -0.4359560572
 H       -13.4753051272       -0.5513093791        0.1995638158
 H       -14.9282536395       -1.4856014453        0.4548086725
 H       -14.9072838682       -3.4729699487        2.3633832508
 H       -13.3443489785       -3.7891999243        3.1259327253
 H       -13.6618990292       -4.0096673932        1.3859041776
 H        -6.4368157660       -0.9744160302        1.4530788262
 H        -5.7839050915        0.1624712515        0.2657254129
 H        -6.6278279879       -1.4050505923       -0.2273706615
 H        -8.5785774722        2.1889707103        1.0374876948
 H        -6.8387341050        2.0327623591        1.3798087114
 H        -7.9994697836        1.3064645532        2.3652822175
 H       -13.0326552669        0.4518717518       -2.5438944779
 H       -11.3347575417        0.2355681218       -3.1833824108
 H       -12.5301609869        0.9181231053       -4.1603851012
 H       -11.8015513864        4.2828257850       -3.3474637270
 H       -12.9560024823        3.2115017233       -4.2933177566
 H       -11.2689026503        3.1515076787       -4.4958539955
 H       -13.5338941379        5.3261530977        3.9314094878
 H       -13.1138620034        6.9325833807        3.6797973904
 H       -11.9655993547        5.6385920682        3.3519778072
 H       -15.5577546009        5.5184221558        2.9191746343
 H       -15.7645840044        6.1050979398        1.2976128318
 H       -15.3296350304        7.2347184227        2.4912453238
 H        -8.8757691618        9.9902114823       -2.7472612216
 H       -10.5108097261        9.6639947656       -1.9856699474
 H       -10.2186449750        9.1411768851       -3.6165054539
 H        -9.1673787017        6.5476528337       -3.9369723941
 H        -8.0133014340        6.2371721201       -2.6443222849
 H        -7.7960208490        7.6603419240       -3.7808824928
 H        -1.7633365438        6.6961958171       -0.6452759964
 H        -2.8194123623        6.6820882720       -2.1166269916
 H        -3.3868013406        5.9203495613       -0.6609606868
 H        -3.1278448827        7.6505644319        1.5872249284
 H        -3.4632335867        9.3200832248        1.2396175262
 H        -1.8690089227        8.5486953011        0.8419866058
 Na      -11.7702133911        1.6241891817        1.3317025037
