117

 C        -2.1211945779       10.1575483021       -0.7216528455
 C        -2.7723062978        9.0804962987       -1.5271529798
 O        -2.8504582517        8.9754320061       -2.7390589947
 C        -3.2999620113        7.8267955609       -0.5948555753
 C        -4.8071071577        7.6627083220       -0.9908031537
 O        -5.1753739405        6.7902006577       -1.7559552462
 C        -5.8992835184        8.5052920115       -0.2166537524
 C        -7.0662496468        8.9052861779       -1.1748195793
 C        -8.3149498818        8.0383834858       -0.9092776712
 O        -8.6145350098        7.7400310243        0.2108474269
 C        -9.1424357045        7.6485026115       -2.1824733877
 C       -10.4605161251        6.8734768340       -1.7973742093
 O       -10.5674642621        5.6745765840       -2.0383470907
 C       -11.5744450798        7.5486249164       -1.1323811478
 C       -11.7221454889        7.0518483601        0.4014234754
 C       -13.1830162391        6.9822729243        0.7715387179
 O       -14.0788157550        7.6665181398        0.2396392504
 C       -13.5630439999        5.9444001741        1.8601862146
 C       -13.3930886871        4.5453038698        1.2822471104
 O       -12.6511304815        3.7459978114        1.7778027115
 C       -14.2666121473        4.2369419479        0.0444772753
 C       -13.4007152627        4.0785791579       -1.2439636302
 C       -13.0510080144        2.6138807897       -1.3685010057
 O       -13.7759487178        1.7312518759       -0.8843851431
 C       -11.8046810322        2.2397194825       -2.3091430483
 C       -10.4009359999        2.5574152657       -1.6993427998
 O       -10.2911436560        2.6548804647       -0.4982104372
 C        -9.1393556284        2.5649628147       -2.5913146536
 C        -7.9633160963        1.9808564226       -1.7973720961
 C        -8.2745685000        0.7488737477       -1.0068829462
 O        -8.9774664521       -0.1457392892       -1.4619683774
 C        -7.8422434594        0.5129876611        0.4950576600
 C        -9.1783194421       -0.2242118588        1.1135066182
 O        -9.9695224136        0.5356197453        1.6141280542
 C        -9.4428386519       -1.7603137584        1.0499293064
 C       -10.9514075144       -1.9864533705        0.7218917613
 C       -11.7826298007       -2.2938176339        1.9366206078
 O       -11.2507384911       -2.8012137804        2.9053500632
 C       -13.3070299291       -1.9490771557        1.9795925383
 C       -13.6102841465       -0.7051220952        2.8791560901
 O       -13.1172022191        0.3918526646        2.6218074270
 C       -14.4081689101       -0.8285886261        4.2266494457
 C       -14.0664684176       -1.6204373705        0.6766364119
 C       -13.9418657856       -3.2432394752        2.6157203622
 C        -6.5750635161       -0.3180284107        0.5273250709
 C        -7.5895443110        1.7937721670        1.3757158800
 C       -11.7242105779        0.6867432356       -2.4664446731
 C       -12.0098732513        2.8721418905       -3.7000884575
 C       -12.5736276596        6.1296784691        3.0507577479
 C       -15.0360042686        6.0666780049        2.3451489895
 C        -9.3906966240        8.9390717364       -2.9611126229
 C        -8.3191506975        6.7139379842       -3.0332684639
 C        -2.5772957873        6.5629828654       -1.1134831780
 C        -3.0845833923        8.0122207829        0.9087209682
 H        -1.3253740464        9.7727517872       -0.1562667321
 H        -2.8671046853       10.5270678698        0.0205644221
 H        -1.9050618254       11.0354527886       -1.2521443748
 H        -5.4165147796        9.4169039423        0.1537177200
 H        -6.2818489476        7.9445979008        0.6789711473
 H        -6.7110863357        8.7602223795       -2.2314321383
 H        -7.3300170981        9.9513959718       -0.9951268624
 H       -12.5039158905        7.2538229935       -1.6624460850
 H       -11.5788169437        8.6587638568       -1.1527191532
 H       -11.1436508619        7.6618670751        1.0142248967
 H       -11.1866013450        6.1094524035        0.4420242795
 H       -14.7856030770        5.1683448428       -0.0283563863
 H       -14.9063334315        3.3881587286        0.1311740636
 H       -12.5665305101        4.7569255435       -1.3963267460
 H       -13.9936983196        4.2186773541       -2.1035111236
 H        -8.8277240524        3.5627930826       -3.0233517173
 H        -9.3867833949        1.9131125159       -3.3587635850
 H        -7.5314167483        2.7254625411       -1.1197784666
 H        -7.1972036399        1.7164237127       -2.5300745501
 H        -9.1319200242       -2.2705502895        1.9667620876
 H        -8.7054259264       -2.2197449354        0.2950593096
 H       -10.9985083595       -2.6800566138       -0.0582097965
 H       -11.3108053358       -1.1176384161        0.1545718794
 H       -15.3884491264       -1.2282063537        4.0009117679
 H       -14.3975692724        0.1726410902        4.6741514527
 H       -13.9325928866       -1.5589115023        4.9585469159
 H       -13.9368165282       -2.5078264574       -0.0174906054
 H       -13.6223829967       -0.7599470100        0.1926294822
 H       -15.1489089272       -1.5705870725        0.8361351029
 H       -14.9726276831       -3.0719702437        2.8617841956
 H       -13.3773643061       -3.5645377535        3.4827115681
 H       -13.8343332690       -4.1676682200        1.9925489689
 H        -6.5983494034       -0.9723508817        1.4280207738
 H        -5.7078088111        0.2519878317        0.4292457357
 H        -6.5898926448       -0.9879709171       -0.4375707817
 H        -8.3321113985        2.5299523134        1.0681638043
 H        -6.6255228535        2.2490704350        1.3064976486
 H        -7.7892070116        1.5481857321        2.4203014359
 H       -10.9934883254        0.2062674819       -1.8179035062
 H       -11.3712026563        0.5060654436       -3.4460076009
 H       -12.6930000190        0.2511118724       -2.2551776273
 H       -12.0872820515        3.8892436281       -3.6110258046
 H       -12.9347163750        2.6154446990       -4.1258275051
 H       -11.2078976100        2.6896134982       -4.4426864669
 H       -12.7168552305        5.3780503170        3.8254894730
 H       -12.6470254802        7.1029758193        3.4379517028
 H       -11.5908584581        5.9820328543        2.6614442497
 H       -15.2318984161        5.2655774011        3.1364638744
 H       -15.7973820005        6.0429096447        1.6006138047
 H       -15.1765563588        6.9762443050        2.9366883783
 H        -8.4652371337        9.4324170244       -3.1753076036
 H        -9.9153356428        9.7178323529       -2.3747054106
 H        -9.8247473205        8.6905073736       -4.0157706670
 H        -8.8983584976        6.4942061884       -3.9098422406
 H        -8.2040704661        5.7804908564       -2.4382289388
 H        -7.3366670797        7.1377587169       -3.2003062012
 H        -1.5321041280        6.7248825031       -1.4445639483
 H        -3.1152420248        6.2125680536       -1.9930035253
 H        -2.6791986287        5.7576440410       -0.3364716507
 H        -3.6579138741        7.2224159711        1.4589987835
 H        -3.3625083760        9.0082983173        1.3274972679
 H        -2.0549212771        7.9306734124        1.1632915288
 Na      -11.8120948115        1.5579393423        0.9892819955
