117

 C        -1.9155978152       10.2010499715       -0.6386455041
 C        -2.5870920289        8.9810312303       -1.4178351397
 O        -2.5817836047        8.9195500280       -2.6238705744
 C        -3.2316378248        7.6990375681       -0.6322599614
 C        -4.8547619296        7.5045019385       -1.0174044993
 O        -5.2628746253        6.7837828379       -1.9002052154
 C        -5.9056741223        8.3390324096       -0.1588785417
 C        -7.1501366654        8.8077274795       -1.0437517779
 C        -8.4867594684        8.0764348969       -1.0781998690
 O        -9.0006596172        7.8052172308       -0.0143325740
 C        -9.1951574948        7.5871434732       -2.3674541475
 C       -10.4676803635        6.8156193914       -2.0210346243
 O       -10.6622523946        5.6339636908       -2.2480223873
 C       -11.5319018019        7.5934286935       -1.1818565886
 C       -11.7165930657        7.1600809865        0.2894958034
 C       -13.1484074287        7.0130869804        0.7732724531
 O       -14.0810919773        7.5895424577        0.2780614771
 C       -13.4772325405        5.9403777956        1.9282219400
 C       -13.4405502459        4.5146134525        1.3059734060
 O       -12.6094874999        3.7409644651        1.7550328200
 C       -14.3163822963        4.2306486622        0.0249487084
 C       -13.4442904664        3.9993964211       -1.2088332085
 C       -12.9647767307        2.4806750251       -1.5021796118
 O       -13.5769807233        1.6375805753       -0.9004177343
 C       -11.8087826954        2.1538888700       -2.4029512548
 C       -10.4387413544        2.4893562056       -1.6162682719
 O       -10.3742103525        2.7099660327       -0.4302636753
 C        -9.1570445928        2.5459768504       -2.4403513596
 C        -7.9293115731        2.1907189643       -1.5964088790
 C        -8.2011153220        0.8083618925       -0.8948233034
 O        -9.0165049977        0.0438118679       -1.4254777194
 C        -7.8078814717        0.5556516386        0.5611689542
 C        -9.1281147402       -0.0629268401        1.2314035580
 O        -9.9277680059        0.6873242975        1.7605377059
 C        -9.5531167165       -1.6041611942        0.8948004079
 C       -11.0724950937       -1.7799820800        0.7999394004
 C       -11.8140853839       -2.1734961294        2.0152646914
 O       -11.2089225148       -2.5957841581        2.9830902583
 C       -13.3988430714       -2.0401250202        2.0411004699
 C       -13.5568675479       -0.7294908045        2.9637352880
 O       -12.9737506603        0.2701508725        2.6303573604
 C       -14.3993296475       -0.6775523739        4.1831844415
 C       -13.9851093503       -1.7366512095        0.6768065642
 C       -14.2574186479       -3.1868968122        2.6856318281
 C        -6.5428920525       -0.4292623725        0.7107667762
 C        -7.4692938032        1.8837941962        1.2944535956
 C       -11.7518850764        0.6238842932       -2.5297369841
 C       -11.9444129451        2.8439568812       -3.7464650819
 C       -12.5732691399        6.0461686676        3.1988472300
 C       -14.8794467352        6.3076859385        2.4231430046
 C        -9.6527065171        8.6328118382       -3.4324998796
 C        -8.1678413540        6.6177104696       -2.9867099170
 C        -2.4753966835        6.5089593137       -1.2269894238
 C        -2.9998468792        7.7742219734        0.9329181796
 H        -1.1319079530        9.6995841906       -0.0047151477
 H        -2.5016273901       10.8205075873        0.0248071293
 H        -1.4769524727       10.9633161603       -1.3096210263
 H        -5.4390147444        9.1975022727        0.3651405585
 H        -6.2178867072        7.6473685175        0.6172981700
 H        -6.7653429231        8.9159241738       -2.0374116967
 H        -7.4030989118        9.8147180640       -0.6566595963
 H       -12.4964860952        7.5203131915       -1.6902144732
 H       -11.3537562766        8.6668722080       -1.1798934226
 H       -11.0962970725        7.8643548083        0.9661915961
 H       -11.0801028349        6.2853018380        0.3281015212
 H       -15.1077453965        5.0194098060       -0.0579230730
 H       -14.8042569254        3.2334636784        0.2040294394
 H       -12.4840157003        4.5464838235       -1.0783660313
 H       -13.8387674054        4.4769700479       -2.1727927394
 H        -9.1141470279        3.5758828597       -2.6432060360
 H        -9.2629035744        1.9661767093       -3.4179639919
 H        -7.7581365655        3.0185348772       -0.9012781229
 H        -7.0052323672        2.1389914159       -2.2016717004
 H        -9.0578742922       -2.3365121945        1.5468696571
 H        -9.0700856015       -1.8177681944        0.0030923935
 H       -11.2519648534       -2.5411058064       -0.0385447420
 H       -11.3917512087       -0.8970239969        0.2345833437
 H       -15.4119568823       -0.9654791209        3.8890808014
 H       -14.1697209541        0.2143342239        4.7639426322
 H       -13.9925856914       -1.4528829472        4.7677333880
 H       -13.8736892094       -2.5596018192        0.0131196611
 H       -13.5056856520       -0.8176037418        0.2647845628
 H       -15.0877417448       -1.6230561007        0.7697394724
 H       -15.3429404115       -2.9060675399        2.7249186270
 H       -13.9099534838       -3.6055381782        3.6452778753
 H       -14.1365340696       -4.0403231137        2.0524412024
 H        -6.1712726211       -0.3433873290        1.7070115600
 H        -5.7845910536       -0.2037176955       -0.0871764398
 H        -6.8444635546       -1.3898458455        0.4976848581
 H        -8.3172018646        2.5271724684        1.4753244530
 H        -6.8076535281        2.4484522451        0.5987192177
 H        -6.9044495976        1.6643096988        2.1899415888
 H       -11.7751692269        0.1969577648       -1.5410872281
 H       -10.7676055716        0.2998862739       -2.9695843821
 H       -12.6555063790        0.2660013503       -3.0817329145
 H       -11.9024621984        3.9748263314       -3.7744419763
 H       -12.9634546649        2.7137265691       -4.1636772142
 H       -11.1537499999        2.4927128031       -4.3731801151
 H       -13.2091735837        5.6409151836        4.0101862623
 H       -12.4050115254        7.1380859494        3.4244065908
 H       -11.5944514702        5.4906974120        3.1460303032
 H       -15.1340664525        5.8628050800        3.3496628897
 H       -15.6908894994        6.0031496505        1.6922445294
 H       -14.9777440539        7.3825066701        2.6090059954
 H        -8.8443182078        9.3676612336       -3.6305844147
 H       -10.4803886223        9.1822883894       -3.1076197714
 H        -9.7314174594        8.1759936077       -4.3296356090
 H        -8.6938441183        6.0047246064       -3.7489876476
 H        -7.6127220416        6.0798112840       -2.2449296671
 H        -7.4377141687        7.2969926285       -3.4209074608
 H        -1.4958916031        6.3850999805       -0.7839525380
 H        -2.3259656235        6.6534568215       -2.3061364252
 H        -3.0428130787        5.6407553964       -1.0208327118
 H        -2.8898575298        6.7794689032        1.2707387374
 H        -3.7826321690        8.2681540160        1.4315074022
 H        -2.1003694766        8.3403040538        1.2831065601
 Na      -12.0209280319        1.6779434947        1.0438777097
