117

 C        -2.2842393791        9.5722797101       -0.0165966223
 C        -2.8182671512        8.5767218490       -1.0917619428
 O        -2.7048574290        8.8400316720       -2.2697408499
 C        -3.4799542522        7.2437872015       -0.6576513701
 C        -4.7775583227        7.4156321886       -1.5102286737
 O        -5.0414330115        6.7394917752       -2.4857770959
 C        -5.6548149779        8.6441100388       -1.0091346754
 C        -6.9794201323        8.9517869624       -1.7917927880
 C        -8.2236466370        8.0640615510       -1.4536790055
 O        -8.6312662879        7.9050831182       -0.2901634609
 C        -8.9540265995        7.3215363097       -2.6339036087
 C       -10.3838693249        6.7340932176       -2.0538040529
 O       -10.6019371628        5.5311986524       -2.2480271012
 C       -11.4371541417        7.5742145494       -1.3633017442
 C       -11.6335406727        7.0348255408        0.1424780148
 C       -13.0741047992        6.9204021622        0.4438944859
 O       -13.9140732096        7.6029239743       -0.0474083342
 C       -13.4023060645        6.0447339785        1.6582117743
 C       -13.3150066926        4.5304650391        1.2858903705
 O       -12.5345125174        3.8439843627        1.9503726599
 C       -14.2658001129        3.9925358189        0.1848267682
 C       -13.5978370048        3.9920234679       -1.2246486909
 C       -13.0671102086        2.5728623101       -1.4633649065
 O       -13.5343609962        1.6339973201       -0.7730783125
 C       -11.9075228222        2.1908342058       -2.4821143209
 C       -10.5786560477        2.4076335577       -1.6301342750
 O       -10.5937510069        2.2029790661       -0.4148770528
 C        -9.1883979409        2.6164278954       -2.1889232701
 C        -8.0323449310        2.5008835597       -1.1249861481
 C        -7.9077407921        1.0488425842       -0.6704166720
 O        -8.0006381182        0.1770170763       -1.4669721698
 C        -7.6005954992        0.6870608447        0.8516666853
 C        -9.0917038490        0.2257790220        1.2455337094
 O        -9.7835731443        1.0113221651        1.8656864768
 C        -9.7008852452       -1.0405685476        0.7483119593
 C       -11.2690830481       -1.2548368124        0.8670946308
 C       -11.9363793656       -1.8145062566        2.1643755508
 O       -11.2767638148       -2.3767554418        3.0149580305
 C       -13.5242424705       -1.7765329317        2.3010192682
 C       -13.9485886801       -0.6147164490        3.2074982427
 O       -13.7872543357        0.5629261106        2.9123046425
 C       -14.5557853451       -0.8933260065        4.6313809065
 C       -14.3725850225       -1.5078639373        0.9421655084
 C       -13.8862743986       -3.1258728055        2.9433818183
 C        -6.5705181865       -0.4326815680        0.9866671623
 C        -7.1198342982        1.9323082260        1.6969407031
 C       -11.8180569908        0.6797851402       -2.8931729567
 C       -12.0205163756        3.0666257125       -3.6603115251
 C       -12.4334453785        6.2462548664        2.8427454318
 C       -14.9223491180        6.4324491340        2.0808526362
 C        -9.2835491085        8.2884158989       -3.7939877518
 C        -7.9662002698        6.2077080129       -3.1515816027
 C        -2.6126166861        6.0980158312       -1.1837418851
 C        -3.7434059125        7.1116152051        0.8399465624
 H        -1.9437925667        9.2055350221        0.9742765556
 H        -3.1169499515       10.2128801811        0.1965123113
 H        -1.4264138343       10.1999897161       -0.4504066531
 H        -4.9926523339        9.4731979078       -1.0293675799
 H        -5.8746314892        8.4816706658        0.0344147986
 H        -6.7712303930        8.9211263557       -2.8639532661
 H        -7.1890777813        9.9754900678       -1.6010782378
 H       -12.4235646797        7.4556733056       -1.7761842412
 H       -11.2188116710        8.6206187925       -1.2905913195
 H       -11.1932401149        7.7164408667        0.8162981321
 H       -11.0582119377        6.0454242513        0.3178219099
 H       -15.2044642126        4.5762878165        0.1681999169
 H       -14.6591092374        2.9582314552        0.4824638502
 H       -12.7923292397        4.7615817443       -1.4804300209
 H       -14.3570079910        4.0826209576       -2.0138161893
 H        -9.0726921133        3.6618376383       -2.6327066632
 H        -9.1364188182        1.9113800767       -3.0014550212
 H        -8.1890255342        3.1968972035       -0.3040872007
 H        -7.0907309695        2.9321228242       -1.4987695802
 H        -9.2812518587       -1.8465218616        1.3186478226
 H        -9.2827171468       -1.1903069602       -0.2864756327
 H       -11.4525101800       -1.9684939020        0.0628885120
 H       -11.7158372687       -0.3084797490        0.5506943816
 H       -15.4256918907       -1.5100292337        4.5033736189
 H       -14.8113438931        0.0729631398        5.0809148322
 H       -13.8498923036       -1.2812774697        5.3584736152
 H       -14.1536323992       -2.3375630516        0.2519740660
 H       -13.9814924630       -0.5658842417        0.5855157606
 H       -15.3672097922       -1.3027095785        1.0924136544
 H       -14.9466529402       -3.2898953186        3.0873352976
 H       -13.4585160121       -3.2106852417        3.9385344820
 H       -13.5965856065       -3.9391776340        2.2703797734
 H        -5.7598924476       -0.2655416194        0.2777857565
 H        -6.9978330910       -1.4603759847        0.7204669662
 H        -6.1867307321       -0.3941658478        1.9170473943
 H        -8.0577524625        2.2685245816        2.1874298676
 H        -6.5975175971        2.6971361745        1.1655628408
 H        -6.5028208354        1.5730655123        2.5457830193
 H       -12.6131778741        0.4748026732       -3.7048263988
 H       -11.9851094659       -0.0131846573       -2.0598572744
 H       -10.8377550061        0.4748625248       -3.2112376739
 H       -11.9103354418        4.1429955061       -3.2629861384
 H       -13.0339612438        2.9782367626       -4.2052492701
 H       -11.3205861970        2.9819377172       -4.4744356519
 H       -12.8331074075        5.7261765200        3.7077039463
 H       -12.2646359716        7.3600791638        3.0789319707
 H       -11.4509745479        5.7791354453        2.5833874848
 H       -15.4235399491        5.7939123048        2.7821886660
 H       -15.6098510776        6.3904325354        1.2598612166
 H       -14.9427067450        7.4668814600        2.4051967291
 H        -8.3756211774        8.5816838390       -4.2891526746
 H        -9.8813222648        9.1653629274       -3.4937473482
 H        -9.9820014984        7.8338081626       -4.4411175059
 H        -8.3399270245        5.8762501733       -4.1066601985
 H        -7.9373248367        5.3807423351       -2.4393255272
 H        -6.9465510550        6.6209432637       -3.3170961518
 H        -1.5704304082        6.3193057190       -1.1873260649
 H        -3.0308810560        5.8504977292       -2.1286403525
 H        -2.7693808645        5.2588111721       -0.5065075300
 H        -4.1019148906        6.0829583434        1.0183501780
 H        -4.5955803511        7.7323003279        1.1570701415
 H        -2.8574279366        7.2437614206        1.3633060909
 Na      -12.1831506038        1.5068529014        1.5182088429
