117

 C        -2.2920687496        9.3415983935        0.2280951170
 C        -2.6267614665        8.5063441637       -0.9025939145
 O        -2.4325580387        8.9101106921       -2.0398654808
 C        -3.5837450325        7.2135234082       -0.6798825053
 C        -4.9223010762        7.4365875566       -1.5746039856
 O        -5.2569503541        6.6443443019       -2.4247350924
 C        -5.7539414178        8.7345238766       -1.2367829827
 C        -6.9631062562        8.9924887330       -2.1338089952
 C        -8.0984754118        8.0496126459       -1.7160860240
 O        -8.2813682985        7.6989055442       -0.5666617010
 C        -8.9551751954        7.3237748973       -2.8504630604
 C       -10.1693039052        6.6880098145       -2.0908666295
 O       -10.3354584756        5.4886742798       -2.1218755573
 C       -11.1432357232        7.6933285905       -1.3526692500
 C       -11.4928490374        7.1816559887        0.0388723031
 C       -13.0050957275        6.9759465922        0.3724398710
 O       -13.8423905771        7.5067510369       -0.3272376670
 C       -13.4739742978        6.1692027975        1.6738696285
 C       -13.3969931610        4.6109853382        1.2795368880
 O       -12.5348459295        3.8570365132        1.6528265617
 C       -14.4645972480        4.0177060858        0.2486801457
 C       -13.6542864531        3.8283115010       -1.0293341236
 C       -13.0261987592        2.3811955238       -1.3374762111
 O       -13.3527107788        1.4326311564       -0.6706867353
 C       -11.9735340207        2.2031277338       -2.3652844102
 C       -10.6730692693        2.3065037448       -1.4160381936
 O       -10.6886265353        2.1075599753       -0.2120113881
 C        -9.3061360337        2.5915646830       -2.0663369138
 C        -8.1277876843        2.3873306358       -1.1494294923
 C        -7.8551167492        0.9986200099       -0.6765820458
 O        -7.6124112691        0.0973496631       -1.4856989023
 C        -7.8146748570        0.7165059545        0.8463324765
 C        -9.2430521428        0.3641889373        1.3408688786
 O        -9.9612195319        1.0554739037        2.0580489630
 C        -9.7889254145       -0.9761989055        0.8448867296
 C       -11.3536366487       -1.1565274609        0.7314048679
 C       -11.8947620067       -1.6478771742        2.1487251648
 O       -11.1489404309       -1.9503064490        3.0263769566
 C       -13.5139947319       -1.6328713893        2.3748959016
 C       -13.9166978647       -0.5256548997        3.4217575159
 O       -13.7648848554        0.6236240373        3.0161762864
 C       -14.5329483842       -0.9532708126        4.7063263446
 C       -14.1901618092       -1.5245360201        1.0202100913
 C       -13.8298215489       -3.0913169961        2.8498807123
 C        -6.7445811412       -0.4660385573        1.0296763869
 C        -7.3640312351        2.0034382201        1.6537977994
 C       -12.0292178429        0.7214484374       -2.9960009878
 C       -11.6913531192        3.1925161562       -3.4944981428
 C       -12.5923065291        6.4223497387        2.8857973088
 C       -14.8811536139        6.4865962287        2.1069479979
 C        -9.4333500813        8.1573924965       -3.9965841668
 C        -8.1053675651        6.1248513114       -3.3762241203
 C        -2.8140148517        6.0373490392       -1.2795675056
 C        -3.8475467592        6.9129101541        0.8144157133
 H        -1.9985066743        8.7801467387        1.0668210716
 H        -3.1468357574        9.9660099612        0.5791125087
 H        -1.4554843192        9.8845832371       -0.0201955054
 H        -5.0197556235        9.5690138794       -1.1605886171
 H        -6.1396266168        8.5467296491       -0.2234385058
 H        -6.6978108386        8.9007302417       -3.1930355008
 H        -7.2493005577       10.0750676723       -2.0316536264
 H       -12.1094687998        7.7914439839       -1.9137772558
 H       -10.6763017606        8.6901222685       -1.1753321053
 H       -11.1296050642        7.9552230863        0.7759751450
 H       -10.9168854256        6.3368086333        0.1648046841
 H       -15.3333963710        4.6586079706        0.1329488965
 H       -14.8939206173        3.1335866364        0.5737120036
 H       -12.8118274536        4.4362882266       -0.9171601366
 H       -14.1145589634        4.1190909357       -1.9756074867
 H        -9.2379891993        3.5680088350       -2.4586423571
 H        -9.2185838432        1.8694349295       -2.9132272730
 H        -8.0190756123        3.1617485835       -0.3929454777
 H        -7.2343368186        2.5920457731       -1.7310671514
 H        -9.4106577385       -1.7895456874        1.5547732520
 H        -9.3107380822       -1.1182979858       -0.1095685744
 H       -11.4242925447       -1.9932229128        0.0576258507
 H       -11.7683494657       -0.2656680077        0.2512738812
 H       -15.3653506284       -1.6613982506        4.4934095642
 H       -14.8582658331       -0.0709917131        5.2897169103
 H       -13.6777845204       -1.4049974993        5.2768682947
 H       -13.6206478151       -2.1440794187        0.3581820505
 H       -14.2264804479       -0.4936511520        0.6564251426
 H       -15.2575069504       -1.9320440092        1.1715112244
 H       -14.8687768121       -3.3548777795        2.9888283908
 H       -13.2702215804       -3.2730144462        3.7562004032
 H       -13.5613031436       -3.8337286799        2.1057080367
 H        -6.2483281250       -0.6893570113        0.0783419917
 H        -7.3047850248       -1.3293936501        1.1761959971
 H        -5.9339930224       -0.2536833199        1.8764691737
 H        -8.1844361641        2.6675742682        1.8650208890
 H        -6.5251345616        2.4477291534        1.0639768190
 H        -6.9437195727        1.7019707186        2.5957948310
 H       -12.0799501219        0.8416845129       -4.0241436138
 H       -12.8850797629        0.1828157866       -2.6783260118
 H       -11.1742720202        0.0743609870       -2.6919068368
 H       -11.3585407395        4.1096243273       -3.1961478003
 H       -12.4334422072        3.2459165662       -4.2006192005
 H       -10.8649064096        2.7850086785       -4.1125493084
 H       -12.9554654798        5.8853018698        3.7603589186
 H       -12.5618771563        7.4222641117        3.0903029671
 H       -11.6347814268        6.0442054050        2.6682363699
 H       -15.0748819970        6.0022754615        3.0983232371
 H       -15.6976778310        6.1503323753        1.4970024388
 H       -15.0531216030        7.5250631295        2.2743968989
 H        -8.5990344298        8.7946917356       -4.2896085056
 H       -10.2967758314        8.7856349094       -3.7464061216
 H        -9.9286082767        7.5216313836       -4.8220609031
 H        -8.7231820409        5.3930762853       -3.9154072394
 H        -7.5994321789        5.6271320997       -2.5466290518
 H        -7.4246267958        6.5191460471       -4.0879878286
 H        -1.8925221286        5.9729430874       -0.6589155793
 H        -2.6612072383        6.1955663276       -2.3572607717
 H        -3.4421970214        5.1388297464       -1.1709806762
 H        -4.5793237326        6.1176794426        0.9026934341
 H        -4.3812415243        7.7095485917        1.3027755505
 H        -2.8395469199        6.6573487099        1.2652042592
 Na      -12.3185130492        1.5483672526        1.5213731889
