117

 C        -2.1823951879        9.0062462022        0.6949723490
 C        -2.6489337884        8.4574250744       -0.6826304494
 O        -2.0922266257        8.7861596547       -1.7153865112
 C        -3.6696720909        7.2143573183       -0.8020604194
 C        -5.0025110437        7.5228018699       -1.6506542162
 O        -5.5964810875        6.5739889518       -2.0939755508
 C        -5.6438027851        8.9505695774       -1.7648429467
 C        -6.9283478400        8.8841067673       -2.5835680272
 C        -7.9084843745        7.9136373683       -1.9905759525
 O        -7.9588953343        7.6802826574       -0.8189184184
 C        -8.9496525700        7.1642569945       -2.9686079108
 C       -10.0891666353        6.6040628606       -2.0215521293
 O       -10.1701024572        5.4215486050       -1.8086538664
 C       -10.9224276035        7.6748150105       -1.3153275132
 C       -11.3815413344        7.1288105389        0.1145359458
 C       -12.9073982172        6.9473245918        0.1392119150
 O       -13.7193243980        7.1169581414       -0.7498598010
 C       -13.4184998051        6.2422833564        1.5496379172
 C       -13.3730819469        4.7858158052        1.2034606145
 O       -12.5600488688        4.0649122074        1.7560691053
 C       -14.3880735388        4.1863555871        0.2517074832
 C       -13.7828648934        3.7940628780       -1.2161590580
 C       -13.1719420145        2.3777573864       -1.2703159018
 O       -13.5030064840        1.4603524879       -0.5534075277
 C       -11.9843513589        2.1732197977       -2.3031299017
 C       -10.5692553412        2.2388948927       -1.5074710571
 O       -10.5769042146        1.9775394662       -0.3331926310
 C        -9.2281840086        2.3247503191       -2.2313628316
 C        -8.1552561445        2.3985376155       -1.1822674882
 C        -7.8535764188        1.0541825407       -0.4747753741
 O        -7.6650891617        0.0524903724       -1.1824658801
 C        -7.9329490418        0.7811741419        1.1180458130
 C        -9.4094555524        0.2545812509        1.3178729687
 O       -10.1708181537        0.8973024289        2.0159900936
 C        -9.8366364222       -1.0686379011        0.6309922348
 C       -11.3483456426       -1.2906297061        0.7654534976
 C       -11.8751651494       -1.3293625942        2.1753627072
 O       -11.2102485386       -1.3597886502        3.1765103715
 C       -13.4264859073       -1.6874102660        2.3461240804
 C       -13.7893805936       -0.5245500524        3.3937582786
 O       -13.5883378165        0.6632990921        3.2287005442
 C       -14.3933707622       -0.8881379411        4.7298901618
 C       -14.2694412891       -1.3649483424        1.0963362807
 C       -13.5423422018       -3.1610990511        2.8211218139
 C        -6.8470666333       -0.4308355749        1.4559561959
 C        -7.5638006778        2.0232802416        1.9754274710
 C       -12.0900525185        0.7053585128       -2.8430411168
 C       -12.0948672997        3.2005924903       -3.5074149219
 C       -12.5442298343        6.5065376096        2.7877107296
 C       -14.7975273206        6.7161822039        1.7910605981
 C        -9.5810898277        8.2616208028       -3.8843408559
 C        -8.4102666965        6.0192775582       -3.7876507566
 C        -2.9218885448        6.0172379224       -1.4579942391
 C        -4.1915327146        6.7912653132        0.5826769436
 H        -1.5854900117        8.1707508328        1.1626534879
 H        -3.0707117008        9.1127277371        1.3707517830
 H        -1.5024744882        9.8359883767        0.7486046735
 H        -4.9132838340        9.6648231329       -2.1281573307
 H        -5.9203879188        9.1976221320       -0.7680428372
 H        -6.6771761572        8.6186352134       -3.5793117399
 H        -7.2928531794        9.9105194745       -2.6566037412
 H       -11.7910772432        7.8371140215       -1.9281301146
 H       -10.3193884546        8.5682564581       -1.1984578300
 H       -11.1662996186        7.8829188190        0.9092018672
 H       -10.8894782568        6.1656107588        0.3149215741
 H       -15.2271259481        4.9152335610        0.0885228946
 H       -14.9110809635        3.3180726937        0.7588543551
 H       -12.9602018408        4.4968896945       -1.4725209012
 H       -14.5720185127        3.8130355001       -2.0135897508
 H        -9.2390157600        3.1434482790       -2.9271544606
 H        -9.0023402852        1.3642977894       -2.8355107801
 H        -8.3258031251        3.1322144980       -0.3958542635
 H        -7.2052919474        2.6819007639       -1.6475875434
 H        -9.3175747636       -1.8942586540        1.1818184736
 H        -9.6080495610       -1.0351974460       -0.4093835047
 H       -11.4037281451       -2.3198143060        0.4123325093
 H       -11.8587704036       -0.6478787343        0.1010491387
 H       -15.4084323210       -1.2524548586        4.4616023572
 H       -14.6183800372       -0.0273542868        5.3449162511
 H       -13.7983629985       -1.6378459335        5.1834387051
 H       -14.0866144868       -2.1302345981        0.4154010726
 H       -13.9761231076       -0.4517987731        0.6288440578
 H       -15.3227088048       -1.5424730631        1.3941999516
 H       -14.6368704872       -3.3065967874        2.9772646780
 H       -12.9713060604       -3.3684027234        3.7390893609
 H       -13.2707490128       -3.9143148498        2.1117230828
 H        -6.5598151490       -0.7354282887        0.4714989733
 H        -7.1200671268       -1.2782843617        1.9967621341
 H        -5.8600474981        0.0114497229        1.9335924461
 H        -8.0937871434        2.9125686374        1.6947227856
 H        -6.4581826001        2.1052685049        1.9267078436
 H        -7.8061273476        1.7715362198        2.9934684190
 H       -11.4984293628        0.4475687696       -3.6796422703
 H       -13.1591071728        0.4786584498       -3.0432914777
 H       -11.8798147648        0.0030031454       -1.9590782810
 H       -11.4551066451        4.0848774305       -3.3403046312
 H       -13.1467952503        3.4487420204       -3.8085125757
 H       -11.6189692371        2.7642094217       -4.4793405809
 H       -13.0271419562        5.9645441095        3.6732010566
 H       -12.5018817879        7.5718958763        3.0382041021
 H       -11.5030850331        6.0769606445        2.6676283092
 H       -15.4621824334        6.0848703310        2.3388784865
 H       -15.2617966033        6.9527949826        0.8071559050
 H       -14.8298036150        7.6263889082        2.3686930653
 H        -8.8192633806        8.6878166796       -4.5572666666
 H        -9.7901817468        9.0980308313       -3.2569074837
 H       -10.4385650786        7.9504011847       -4.4982429839
 H        -9.2708876336        5.5763037168       -4.3485676872
 H        -8.0846846013        5.2347937485       -3.1174333609
 H        -7.6799692142        6.3130492236       -4.5259686861
 H        -2.3501632793        5.5332917202       -0.7011427194
 H        -2.2373607668        6.4564165574       -2.1878849749
 H        -3.6205079343        5.4349068236       -1.9921513761
 H        -4.9122716396        6.0059286437        0.5410435029
 H        -4.6731515780        7.6216014309        1.0428114403
 H        -3.2985942337        6.5859761681        1.2223150571
 Na      -12.1701373965        1.7969885326        1.6541451936
