117

 C        -8.9954406110       -0.9276410073       10.8889437062
 C        -8.0042987657        0.1258365355       10.3069980164
 O        -8.0353120238        1.2891446361       10.5957868378
 C        -6.8246308313       -0.2880853992        9.2199869061
 C        -7.4307360762       -0.2570579318        7.8513925838
 O        -8.5566929521       -0.7653120772        7.7286941335
 C        -6.7042665777        0.3468439475        6.6179714670
 C        -7.5014331484        0.2225224158        5.3027851254
 C        -6.5544430721        0.5696932037        4.1743695779
 O        -5.4062491151        0.8480206031        4.3690816356
 C        -7.2659140261        0.8917599801        2.7820698932
 C        -7.9141014735        2.3366239538        2.7837748678
 O        -8.9443423168        2.6474257619        3.3985446152
 C        -7.2835367352        3.4117152967        1.7804588019
 C        -8.0224050926        4.7339050384        1.9233473303
 C        -9.1976205767        5.0333084460        0.9719046438
 O        -8.9764956506        4.9048767903       -0.2021012571
 C       -10.6477692046        5.5641081659        1.4239748101
 C       -11.7535140646        4.9196233970        0.5195062978
 O       -11.7271205035        5.2941752521       -0.6318580565
 C       -12.9381502463        4.0656918615        0.9075967777
 C       -13.6728439286        3.5783847065       -0.3830384656
 C       -13.2692993310        2.1265356540       -0.7149926120
 O       -12.9861941223        1.3619103241        0.1694161609
 C       -13.2937708462        1.6450756523       -2.2186014571
 C       -12.3222934338        2.5260329543       -3.0847550735
 O       -11.5819492509        3.2750252943       -2.4518467258
 C       -12.2029449300        2.3605574164       -4.5799180378
 C       -11.1919585114        3.2733219259       -5.3515024831
 C       -11.7680831545        4.0684177842       -6.5266627345
 O       -12.9469738816        4.2722601067       -6.5505097967
 C       -10.7632957663        4.7258156438       -7.4813789206
 C       -10.5773443763        6.2227760135       -6.8989858028
 O        -9.4865919846        6.7177719557       -6.9178418882
 C       -11.8800217784        7.0207696413       -6.5237043348
 C       -11.5861024981        8.2747844176       -5.6486688562
 C       -10.6537646378        7.8618095913       -4.4160956505
 O       -11.0069522964        6.8882774968       -3.7598578626
 C        -9.2864443121        8.5305218752       -3.9206038303
 C        -8.0470829963        7.4450666281       -3.9742472338
 O        -8.1767873287        6.3000189945       -3.4999059371
 C        -6.7669661348        7.8005158096       -4.7761442406
 C        -8.9110378163        9.7791258619       -4.6850751109
 C        -9.3185516524        8.9639555948       -2.4036962531
 C        -9.3333568899        3.9495571934       -7.7935200403
 C       -11.3995334359        4.8546997926       -8.8098134650
 C       -12.9783583190        0.0717861352       -2.4644707618
 C       -14.8335634130        1.9427131960       -2.5086137003
 C       -10.9026207925        5.2081994905        2.9599313945
 C       -10.4990819062        7.1570751262        1.2804180644
 C        -6.2243920533        0.7622551785        1.6330723832
 C        -8.4746432383       -0.1223878088        2.4593207257
 C        -5.5513745807        0.5796686596        9.5210697119
 C        -6.4225108992       -1.7909595515        9.4402762721
 H        -9.3359353288       -1.6036402500       10.1362315110
 H        -9.7685509859       -0.2952213594       11.4787403567
 H        -8.3805898011       -1.5688865683       11.6170210456
 H        -5.7640749110       -0.1037807278        6.5592763553
 H        -6.4056650092        1.4243891686        6.8156781687
 H        -8.2918358915        0.9198251267        5.2779713315
 H        -7.8771785887       -0.7682797992        5.2241806013
 H        -7.2301947830        3.0774572417        0.7716117342
 H        -6.2922481497        3.6786267870        2.0211065464
 H        -7.3767634995        5.5884315340        1.7275765676
 H        -8.3203612318        4.7953037624        2.9440007693
 H       -13.5504039063        4.8327052543        1.5183765185
 H       -12.5708842247        3.1990308237        1.4562934356
 H       -13.4349832374        4.2054992636       -1.2650265258
 H       -14.8094287865        3.6867172085       -0.3397323259
 H       -13.2496311045        2.4214361284       -5.0221119117
 H       -11.8768407380        1.2998221593       -4.7411508818
 H       -10.2931591087        2.7208003516       -5.6229066136
 H       -10.8830654504        4.0875078445       -4.5944569249
 H       -12.4405512703        6.2794428698       -6.0238233719
 H       -12.3695584862        7.3041739134       -7.4515403465
 H       -12.4963817580        8.6100331422       -5.1341111627
 H       -11.0520489245        9.0641871003       -6.1306466939
 H        -6.9692022650        8.6068336235       -5.4528403540
 H        -6.3872686408        6.9283751735       -5.3745030154
 H        -5.9426755253        8.0225573484       -4.0628089856
 H        -9.8198723633       10.4571934495       -4.5581860019
 H        -8.7908312919        9.6464329123       -5.7334173475
 H        -8.0758947535       10.2342740197       -4.2690687960
 H        -9.6585079565        8.1094727897       -1.8037655964
 H        -9.9472221916        9.8745750844       -2.2819489205
 H        -8.3350490710        9.2892447886       -1.9335649067
 H        -9.5146047420        3.0699880020       -8.3210656958
 H        -8.8140356328        3.6861285136       -6.8433653406
 H        -8.6919665193        4.6455217168       -8.3390022035
 H       -11.5108793199        3.9188466850       -9.2750182887
 H       -10.7603878156        5.5333394137       -9.3505905122
 H       -12.4090265368        5.1607904939       -8.7706983484
 H       -13.9327376078       -0.5086954408       -2.2990019872
 H       -12.2431851132       -0.3488389097       -1.7761191939
 H       -12.6534818541       -0.0993104442       -3.5248297846
 H       -15.3130622519        2.3136824531       -1.6506918133
 H       -15.4103439453        1.0882188722       -2.8544858226
 H       -15.0404890828        2.7127213635       -3.2098263895
 H       -11.9335485722        5.5877744716        3.2204537018
 H       -10.1737642637        5.6231905230        3.5522741746
 H       -10.9225257510        4.1093618082        2.9939282490
 H       -10.5942406912        7.4790079434        0.2015944296
 H        -9.4680275349        7.4793220518        1.6041535614
 H       -11.2800504786        7.6234914444        1.9049507055
 H        -5.6663973280       -0.1934985764        1.6969570377
 H        -5.4813142318        1.5670381949        1.6804229729
 H        -6.7355707689        0.6923217977        0.6905733292
 H        -9.2902900619        0.0986023389        3.0957597069
 H        -8.0051555873       -1.0702393854        2.4606831121
 H        -8.7853201135        0.0691020787        1.4678552965
 H        -5.8995778984        1.5737465428        9.6618362996
 H        -4.8070582070        0.5670892539        8.7504177911
 H        -5.0442502006        0.2449195738       10.4806527408
 H        -7.1434241980       -2.3963083288        8.9881719487
 H        -6.2938816664       -1.9460374153       10.4965939477
 H        -5.3959061770       -1.9544333978        9.1178791337
 Na      -10.0739094073        5.4891895007       -2.2223624381
