117

 C        -2.2646264668        8.8246564940        0.7411685340
 C        -2.6593136143        8.3522146688       -0.6386395146
 O        -2.0844928204        8.7974367235       -1.6017521131
 C        -3.7283322167        7.2621909923       -0.8125469182
 C        -5.0193637474        7.5018655839       -1.6858767535
 O        -5.6281072661        6.5093635110       -2.0679940724
 C        -5.5186449716        8.9407828597       -2.0582810642
 C        -6.9544082014        8.8956259748       -2.6781861751
 C        -7.8281968196        7.8295544599       -2.0629202767
 O        -7.8563651325        7.7253292671       -0.8250174508
 C        -8.9620345766        7.1801225959       -2.9794161997
 C        -9.9992730517        6.6230434258       -1.9874936626
 O       -10.1237976438        5.4085072646       -1.8791225675
 C       -10.8466107185        7.6310766707       -1.3152850301
 C       -11.3679255093        7.2244715445        0.0511663798
 C       -12.7978114251        6.8656766935        0.1065954848
 O       -13.5211360918        7.0252677830       -0.8165198864
 C       -13.4341618178        6.2821823281        1.4521116347
 C       -13.4515280657        4.7028378344        1.2604990947
 O       -12.5605964427        4.0353189519        1.7273467236
 C       -14.5412550453        4.1151441815        0.2971014774
 C       -13.7986400491        3.8919932335       -1.0572068831
 C       -13.1008187873        2.5045943870       -1.2617171680
 O       -13.4147145405        1.5401750292       -0.5781203294
 C       -12.0173974011        2.1835005378       -2.3512397776
 C       -10.6519826290        2.1535198003       -1.5937729245
 O       -10.6935142097        2.0095298720       -0.3406213143
 C        -9.2332949729        2.2585756862       -2.2128031939
 C        -8.0724738524        2.3425340839       -1.0970411950
 C        -7.8774422730        1.0016194266       -0.4045877030
 O        -7.7127850626        0.0100292838       -1.0450014442
 C        -7.9185904065        0.7959904365        1.1503163208
 C        -9.3646792437        0.2295370643        1.3779606626
 O       -10.1307013597        0.9158748348        2.0363584317
 C        -9.7773709895       -1.0338829615        0.6111251446
 C       -11.3220356820       -1.4069974682        0.7073733619
 C       -11.8390860744       -1.4273889785        2.1947590051
 O       -11.1145799024       -1.2209477067        3.1362100016
 C       -13.4340525944       -1.5626599558        2.3989988555
 C       -13.8221091701       -0.5172060333        3.4591653706
 O       -13.5247508739        0.6649520545        3.2298938041
 C       -14.4549936992       -0.8958438615        4.8408628628
 C       -14.3540530104       -1.3936818340        1.1097820811
 C       -13.5646393988       -2.9918741405        2.8108815451
 C        -6.8098669364       -0.2775221306        1.4366027636
 C        -7.7332213125        1.9784148952        2.0519501195
 C       -12.1829750683        0.7231649057       -2.6975654345
 C       -12.0265164346        3.0896134084       -3.6160919399
 C       -12.5761613042        6.6203001687        2.7480620983
 C       -14.8922190316        6.8308045684        1.7261975038
 C        -9.6807919201        8.2909555584       -3.8159024563
 C        -8.4620543632        6.0316082238       -3.8997960762
 C        -2.9306576259        6.0671904010       -1.4022109523
 C        -4.2111464517        6.7084588430        0.5706578392
 H        -1.6193655885        8.0870705677        1.1693485848
 H        -3.0890137923        8.9823774939        1.5022479176
 H        -1.5958797092        9.6760923293        0.6838311397
 H        -4.7651429915        9.3685056904       -2.7140849157
 H        -5.5386934806        9.4938778134       -1.1526812671
 H        -6.8879806493        8.8828247820       -3.7497166052
 H        -7.4052628850        9.8663582713       -2.4280954701
 H       -11.7001592561        7.7285980174       -1.9949923860
 H       -10.2927043675        8.5683403724       -1.1920776709
 H       -11.2296276185        8.1058109872        0.7132767346
 H       -10.8142842970        6.4098951524        0.3635148344
 H       -15.3696274526        4.8143467399        0.0284917675
 H       -15.0194950473        3.2479111868        0.6777951076
 H       -13.1452747783        4.7009592059       -1.2610856611
 H       -14.6209572036        3.8589256511       -1.8027964380
 H        -9.2368166825        3.1800017809       -2.7964930269
 H        -9.0004950231        1.4174442310       -2.9198353518
 H        -8.2773491405        3.0978193231       -0.3254655022
 H        -7.1394664417        2.6009456974       -1.5662334137
 H        -9.1287130333       -1.8690590062        0.9319964771
 H        -9.6456740186       -0.7469878571       -0.4164667783
 H       -11.4163962556       -2.2631450523        0.1172691001
 H       -11.8435125886       -0.6043368480        0.2050984569
 H       -15.4624484009       -1.2629046614        4.7120717165
 H       -14.6408449822       -0.0381800890        5.4766572925
 H       -13.7657795616       -1.6965932124        5.2263064476
 H       -14.0927503340       -2.2362324187        0.5090411536
 H       -14.2411263810       -0.5384968177        0.5312225726
 H       -15.3227830986       -1.7385134259        1.4498411431
 H       -14.6038456546       -3.2306479120        2.9721154633
 H       -12.9792381021       -3.1485851924        3.7052884045
 H       -13.1434590627       -3.7262076078        2.1082661222
 H        -6.7936284002       -1.0208675234        0.5831054159
 H        -6.8929008234       -0.7957405013        2.4119144417
 H        -5.8321163876        0.2054920680        1.4680311346
 H        -8.5723694966        2.6488130530        1.8542158091
 H        -6.7431551505        2.4400955113        1.8956327371
 H        -7.7925571679        1.6129731497        3.0709153013
 H       -11.2746392014        0.2496772491       -3.1099144446
 H       -12.9816492361        0.5836508912       -3.3864916455
 H       -12.4823831083        0.1678578985       -1.8041689405
 H       -11.3567136171        3.9443688979       -3.4748284759
 H       -13.0300720908        3.4085413597       -3.8874588121
 H       -11.5986499135        2.5988282975       -4.5454143582
 H       -13.0915089689        6.2821685736        3.6949891449
 H       -12.3534588396        7.6809640595        2.8422295863
 H       -11.6313379522        6.0741661176        2.6483075419
 H       -15.4683607564        6.0817525544        2.3121259133
 H       -15.4555948928        7.1321165053        0.9079405278
 H       -14.8774815791        7.6190933427        2.4249293779
 H        -9.1534566218        8.4640311799       -4.7448148609
 H        -9.6984402339        9.2785351859       -3.3184058175
 H       -10.7188555602        7.8753450070       -4.1880773717
 H        -9.2621208314        5.7361470743       -4.5847417016
 H        -8.3793323790        5.1735361979       -3.2146647160
 H        -7.5727588955        6.1957279151       -4.4682985592
 H        -2.1865464863        5.8148741015       -0.6548430904
 H        -2.4190332523        6.3613031346       -2.2824295126
 H        -3.6578473664        5.3226785295       -1.6275440465
 H        -4.6461982430        5.7098727784        0.4283068834
 H        -4.9398911072        7.3713046356        1.0373447304
 H        -3.3687728910        6.7033982249        1.2773285006
 Na      -12.1540674795        1.7792487428        1.6376298971
