117

 C        -2.3380157039        8.7146956420        0.8387861448
 C        -2.6788380133        8.3674099554       -0.6187338169
 O        -2.1419179455        8.8785473534       -1.5845341109
 C        -3.7606826970        7.1755947870       -0.7486997420
 C        -4.9639303778        7.4131350190       -1.7322769612
 O        -5.6895562196        6.5038639465       -2.1002335191
 C        -5.2956393620        8.8344990292       -2.2745193381
 C        -6.7926832141        8.9087903089       -2.8076294367
 C        -7.7975171188        7.9082670349       -2.1201090774
 O        -7.8227324411        7.6673241510       -0.9280735542
 C        -8.9524835250        7.1769385633       -2.9993034620
 C       -10.0187678573        6.5651292587       -2.0194622757
 O       -10.1739271845        5.3590427471       -1.8445145648
 C       -10.8656746549        7.6433394642       -1.2127072644
 C       -11.2611708469        7.3142271304        0.1986011353
 C       -12.8381469696        6.8348137035        0.1642377841
 O       -13.4213473690        6.8914845637       -0.9019611835
 C       -13.5054687749        6.2363935868        1.4717469442
 C       -13.5123808332        4.7251595744        1.2698458616
 O       -12.5972693408        4.0356293112        1.7504507245
 C       -14.4513003392        4.0488570589        0.2426229102
 C       -13.8128656725        3.9386322759       -1.1276842340
 C       -13.1073858505        2.5504215219       -1.2345412628
 O       -13.4257933908        1.7317860609       -0.3846499263
 C       -11.9764785750        2.1474584439       -2.3217770388
 C       -10.6589310703        2.2330795614       -1.4718513965
 O       -10.7255313633        2.0325606087       -0.2868601274
 C        -9.2735332902        2.2851376627       -2.1363699615
 C        -8.1446375346        2.3654184971       -1.0613395099
 C        -7.8995991772        0.9222460861       -0.4126470409
 O        -7.7486466764       -0.0164541776       -1.1505721776
 C        -7.9025154379        0.7609192744        1.1939900436
 C        -9.3747009841        0.2242654996        1.3885016017
 O       -10.0778015671        0.8926059927        2.1042183720
 C        -9.7702251644       -1.0680068953        0.6578955356
 C       -11.3136255064       -1.3849179918        0.7099258296
 C       -11.8520277680       -1.2791317522        2.1177501168
 O       -11.0998104170       -1.2476941702        3.0688661190
 C       -13.3900489913       -1.5951946764        2.4718097387
 C       -13.7355348890       -0.4602072246        3.4718770772
 O       -13.5393468920        0.7462215523        3.2891613043
 C       -14.4558989513       -0.9062971919        4.7645965112
 C       -14.2859574913       -1.3352648388        1.1730712805
 C       -13.6390134120       -3.0161844187        3.0073457383
 C        -6.8124384678       -0.2188758315        1.5368172490
 C        -7.8190161234        2.0905248672        2.0893766187
 C       -12.2876814526        0.6433365257       -2.7834675182
 C       -11.9100425177        3.0158993709       -3.6169820815
 C       -12.5883721603        6.6791805684        2.6395939055
 C       -14.9182392376        6.9065887771        1.5977936232
 C        -9.6446748093        8.2960827502       -3.8293087481
 C        -8.3646380257        6.1445162219       -4.0047552006
 C        -2.9036029864        6.0125332150       -1.4864546544
 C        -4.3961410398        6.6458468897        0.6455874939
 H        -1.7432373471        7.9869104140        1.3473494590
 H        -3.1698571906        8.9057895471        1.4399202206
 H        -1.6677223998        9.6002410732        0.8283685470
 H        -4.6307706416        8.9105816802       -3.1383437202
 H        -5.0063440823        9.6183045174       -1.5329541660
 H        -6.6767089014        8.7241005897       -3.9047966306
 H        -7.1205249469        9.9454696784       -2.7357996630
 H       -11.8497619446        7.7480043043       -1.7442793389
 H       -10.3257790652        8.6033312867       -1.1885854319
 H       -11.0691918840        8.1651231474        0.7837523604
 H       -10.7138623781        6.3960622223        0.5017866109
 H       -15.4370558521        4.3893836452        0.0892355254
 H       -14.5312153923        3.0714633111        0.6432051196
 H       -13.0590233557        4.6839163076       -1.2803071641
 H       -14.6145006985        4.0240976598       -1.8151328296
 H        -9.1169116750        3.1539901337       -2.8386474076
 H        -9.2129502111        1.4248992408       -2.7222164018
 H        -8.4054463541        3.1380507006       -0.3305104662
 H        -7.2209723217        2.6503906097       -1.5843347933
 H        -9.2947462090       -1.8050355193        1.2645576606
 H        -9.4466369828       -1.0268950190       -0.4164188679
 H       -11.3761532095       -2.4186559665        0.3683917844
 H       -11.8681250967       -0.7838723186       -0.0557743826
 H       -15.4432672082       -1.3241673341        4.6178017068
 H       -14.7191058628        0.0012950025        5.3365128300
 H       -13.7491223995       -1.6533895142        5.2090417600
 H       -14.0364319317       -1.9564014855        0.2762477271
 H       -14.1236171683       -0.2886855948        0.9058745554
 H       -15.2248220766       -1.6575089578        1.4156798692
 H       -14.6661842217       -3.2171300777        3.2300300918
 H       -12.9981715814       -3.2192756893        3.8475469019
 H       -13.2236361846       -3.7421724120        2.2886233671
 H        -6.9612935202       -1.3117876143        1.3594430583
 H        -6.6655780743        0.0058884822        2.6546745276
 H        -5.9052945692        0.0227507616        1.1269410223
 H        -8.8140755235        2.5407957710        1.9024528184
 H        -7.0503148362        2.7517576410        1.7532695507
 H        -7.6676695259        1.8377215856        3.1575789948
 H       -11.3119714969        0.0913788605       -2.9236030839
 H       -12.7891828366        0.6313672056       -3.7340490960
 H       -12.8383965086        0.0926868401       -2.1210277667
 H       -11.4595616655        4.0072224503       -3.4748855441
 H       -12.9214722009        3.1091278479       -3.9699590817
 H       -11.3658436552        2.5556449243       -4.3406119676
 H       -13.0075797962        6.5770439916        3.5817726900
 H       -12.3579874843        7.7489457260        2.5092881998
 H       -11.6776137162        6.1478293747        2.5515537614
 H       -15.5897599834        6.3364660371        2.2177555151
 H       -15.3687238358        7.0182128089        0.6440163807
 H       -14.9050816783        7.8723832223        2.0796325702
 H        -9.2402433181        8.3625981266       -4.8706614699
 H        -9.6209745425        9.3600931338       -3.3892334018
 H       -10.6213998404        7.9005744625       -4.0516523776
 H        -9.0346260909        5.9585277204       -4.8087193698
 H        -8.2151637752        5.1862552168       -3.5082335011
 H        -7.4056726537        6.5040824973       -4.4288013769
 H        -1.9195719068        5.9546007979       -1.0411367117
 H        -2.7445292392        6.3664058222       -2.4851949593
 H        -3.5322212849        5.1005681857       -1.5156519596
 H        -4.8859772579        5.6653189389        0.3774315830
 H        -5.1439276144        7.4001804737        1.0504946472
 H        -3.7018743547        6.5317322573        1.4444755388
 Na      -12.2316940319        1.7010613103        1.5818848462
