117

 C        -2.6557599623        8.4582031430        0.8568343185
 C        -3.1530081961        8.1234863344       -0.5289391630
 O        -2.9132850820        8.9652207116       -1.3794781785
 C        -3.8707220190        6.7754919308       -0.8168811745
 C        -4.8497370961        6.9500036198       -2.0206613354
 O        -5.4824274536        6.0219882058       -2.4589813625
 C        -5.0833666900        8.4540326773       -2.5101912135
 C        -6.3841608054        8.5099498852       -3.3312632874
 C        -7.5376010483        8.0727884198       -2.4387148377
 O        -7.5718969798        8.2892539924       -1.2675367605
 C        -8.8451687994        7.3941387044       -3.1095031809
 C        -9.8601350259        6.8602708592       -2.0184992558
 O       -10.1653580183        5.6774434820       -1.9902308662
 C       -10.5738838968        7.8418960952       -0.9958785268
 C       -11.0398055308        7.1195577575        0.2458132022
 C       -12.6157966095        6.7852820267        0.0786665814
 O       -13.0894900397        6.9229322994       -1.0424342793
 C       -13.4839852050        6.3483031694        1.2786013803
 C       -13.7287285247        4.8456665261        1.0869026411
 O       -13.0116314937        4.0948112527        1.7491871222
 C       -14.6566345073        4.1655530271        0.0137600464
 C       -13.8252665366        3.8768536550       -1.2460586718
 C       -13.2255703056        2.3462362249       -1.2677237988
 O       -13.6618818593        1.4710325232       -0.5523581695
 C       -11.9824048419        2.0813201659       -2.2152802236
 C       -10.5479191522        2.2413251477       -1.3045099500
 O       -10.5926947927        2.1354300188       -0.1268610214
 C        -9.3085018194        2.4523116502       -2.0599091165
 C        -8.0701397523        2.4241499151       -1.1992416095
 C        -7.9040065608        1.0930370807       -0.4578493789
 O        -7.8175835412        0.0261621287       -1.0728551546
 C        -7.9747641254        0.9234809499        1.1372129301
 C        -9.3905102730        0.4105826409        1.5676010732
 O       -10.1085007120        1.1185857729        2.2410745458
 C        -9.7785151916       -0.9998067436        1.0981245976
 C       -11.2445679822       -1.4069890710        1.1012467715
 C       -11.8090143194       -1.6825452948        2.5048691955
 O       -11.1609140604       -1.9087258474        3.5077764093
 C       -13.4461380224       -1.5104043321        2.6405929871
 C       -13.7766865541       -0.3462108021        3.6459238049
 O       -13.5792258325        0.8063957436        3.3330241192
 C       -14.5842476397       -0.7313861470        4.9795221301
 C       -14.1596548416       -1.2775416751        1.3041072655
 C       -13.8219984848       -2.8945102957        3.1865360325
 C        -6.8581511914       -0.0696414336        1.4715185360
 C        -7.7474573916        2.2517878807        2.0352154623
 C       -11.9480528036        0.5922094025       -2.7516420978
 C       -12.0065671709        3.0866220204       -3.4236040680
 C       -12.6739263481        6.5503414270        2.5511664191
 C       -14.8037486681        7.0850361475        1.2523867229
 C        -9.4251807271        8.4736530199       -4.1424585291
 C        -8.3579364568        6.1769175653       -3.9226431087
 C        -2.7450008504        5.8166715622       -1.2102101235
 C        -4.6107672366        6.3474877607        0.4230511809
 H        -2.2916942882        7.5670124587        1.4338556142
 H        -3.4053388789        8.9169328889        1.4621279107
 H        -1.8279742565        9.2119117705        0.7892091534
 H        -4.2322623326        8.8693275776       -2.9758007339
 H        -5.2882562482        9.0277946976       -1.6046403131
 H        -6.2906238392        7.9448418831       -4.2714995852
 H        -6.5138075224        9.5318278097       -3.6206135776
 H       -11.4613973704        8.2098172258       -1.5409437794
 H        -9.9579640835        8.6900949467       -0.7137916535
 H       -10.9633125014        7.7496575356        1.0675216043
 H       -10.5176625971        6.1532607717        0.3841982029
 H       -15.5415567812        4.7022289217       -0.2232328389
 H       -14.8761236188        3.1999208427        0.4654718938
 H       -12.9220724992        4.5053692967       -1.2360760218
 H       -14.3550989758        4.0358665781       -2.1667998490
 H        -9.3876516018        3.5196207431       -2.4885984304
 H        -9.2404436116        1.8126240650       -2.9022807186
 H        -8.0846459266        3.2055084645       -0.4663474794
 H        -7.2331737066        2.4944364744       -1.8968888950
 H        -9.3457818488       -1.6346538944        1.8315257869
 H        -9.2716924354       -1.0097802100        0.0997221433
 H       -11.4317274537       -2.2616082219        0.5023018067
 H       -11.8501695677       -0.6848883591        0.5799283790
 H       -15.4112445104       -1.3944499663        4.7588193333
 H       -15.0306380122        0.1712416686        5.4178811509
 H       -13.8960490669       -1.3749526619        5.5164895689
 H       -13.8229198117       -2.0433781066        0.5928839597
 H       -13.8122733857       -0.2967390935        0.9423676495
 H       -15.2026734552       -1.2479503993        1.4167138276
 H       -14.8832780144       -3.0320924139        3.2890101159
 H       -13.3990004082       -3.1583112828        4.1616882006
 H       -13.3488667710       -3.5990916854        2.4919516727
 H        -6.6100949106       -0.0370289019        2.5381318898
 H        -5.9367545032        0.2393938770        0.9276082618
 H        -6.9726967152       -1.1706680848        1.2364632780
 H        -8.6694523130        2.8393302957        1.9589620660
 H        -6.9655913794        2.8910125374        1.7077487857
 H        -7.6174390980        1.8536314265        3.0524309685
 H       -11.1869407034        0.4699233317       -3.5577473156
 H       -12.9031362194        0.2612341726       -3.1827302134
 H       -11.5761686266       -0.0918485245       -2.0434702889
 H       -11.4083056731        4.0087824024       -3.2218924672
 H       -13.0373392990        3.4956498361       -3.5829212612
 H       -11.6642046044        2.5316659769       -4.2645396356
 H       -13.2327510749        6.1687430583        3.3981950785
 H       -12.6132094112        7.6848098704        2.7177948889
 H       -11.6239225431        6.1611846069        2.5331680795
 H       -15.5206535889        6.5841988541        1.8170393827
 H       -15.1745918107        7.1987198945        0.2262759653
 H       -14.6965067682        8.1089771548        1.6217047146
 H        -8.4805544316        8.7857223425       -4.7169619101
 H        -9.8371711035        9.3608948084       -3.5603317322
 H       -10.0605246922        8.1247586650       -4.8998113540
 H        -9.1363842677        5.4670073932       -4.1070006849
 H        -7.4848882078        5.7174809717       -3.4711307647
 H        -7.9291446349        6.5219764715       -4.8917588538
 H        -2.2872444249        5.4316368950       -0.3293186898
 H        -2.0540496424        6.3848295849       -1.7839530868
 H        -3.2053663813        4.9853849598       -1.7243030450
 H        -5.0051971063        5.3689103307        0.1735197326
 H        -5.3091417802        7.0975277354        0.8205864890
 H        -3.9037652905        6.0998599281        1.1419843256
 Na      -12.3664413501        1.8367229778        1.6859692357
