117

 C        -2.6271249241        8.4084552358        1.0315302131
 C        -3.0905514982        8.1188127364       -0.3920674742
 O        -2.8937649165        8.8636961612       -1.3351738420
 C        -3.8015928506        6.7331570890       -0.7533400529
 C        -4.8261212454        6.9625136976       -2.0497844869
 O        -5.2845563159        5.9623916720       -2.5462303351
 C        -5.1651522939        8.3426158859       -2.6359453512
 C        -6.4572336396        8.3390656359       -3.4449578382
 C        -7.6619475727        8.1414592004       -2.5448114862
 O        -7.6160903311        8.4683831852       -1.3729092840
 C        -8.8071559059        7.3796771351       -3.1757836881
 C        -9.8793827537        6.9138459700       -2.0978499031
 O       -10.1760281995        5.7525338521       -1.9425727826
 C       -10.4387787307        7.8829239440       -0.9496999436
 C       -11.0270495702        7.1547223376        0.2105247893
 C       -12.5938505422        6.8390957779       -0.0169919798
 O       -13.0626209983        7.0398027266       -1.0960574706
 C       -13.4819658019        6.3212903032        1.2012921152
 C       -13.7419857117        4.7357464497        1.0716341807
 O       -13.0398056714        4.0340556125        1.7774670807
 C       -14.6567757339        4.1554434974        0.0638259744
 C       -13.8477862270        3.8057639964       -1.2204250616
 C       -13.1298331679        2.4277802265       -1.2901661808
 O       -13.6598983877        1.5272041467       -0.6252198189
 C       -11.9137236678        2.0885447408       -2.2104225666
 C       -10.6308697453        2.3229143539       -1.3868643512
 O       -10.6242905146        2.1887446401       -0.1735127285
 C        -9.2732264148        2.5499903461       -2.1325436294
 C        -8.0860338332        2.4377680806       -1.1459496284
 C        -8.0548961232        1.1155528615       -0.3630910549
 O        -7.9109253611        0.1010346503       -1.0409618837
 C        -7.9829744459        0.9490296160        1.2376576657
 C        -9.3487654208        0.4403757031        1.6661372926
 O       -10.1421175191        1.1769330297        2.2507355926
 C        -9.7593004221       -1.0528185395        1.1981136412
 C       -11.2374458552       -1.3592227569        1.2809757468
 C       -11.8706967866       -1.6009924671        2.6204617191
 O       -11.1955828570       -1.9973818512        3.5293801806
 C       -13.4388155955       -1.6551639248        2.7148511280
 C       -13.8170115465       -0.4540058288        3.6270865247
 O       -13.6056692264        0.7207697086        3.3729145471
 C       -14.5014787217       -0.6928557016        4.9404751020
 C       -14.0812045967       -1.2469321708        1.3446632802
 C       -14.0321416784       -2.9468797660        3.3656828391
 C        -6.7729029515       -0.0090852274        1.5197886405
 C        -7.6614941065        2.2679656603        1.9621519366
 C       -11.8715553220        0.6396067508       -2.6650737281
 C       -12.0292745195        3.0424695168       -3.4618973723
 C       -12.6358101697        6.4521970651        2.5556568582
 C       -14.8208511339        7.1698048383        1.1248497905
 C        -9.4815846428        8.4372264838       -4.1267141505
 C        -8.3455358153        6.1828168935       -3.9953830093
 C        -2.6561138705        5.7531290835       -1.2594251558
 C        -4.7763422219        6.2305596320        0.3889080129
 H        -2.2255460445        7.5081397532        1.5384037144
 H        -3.5021548737        8.6871578281        1.6153294825
 H        -1.9850374863        9.2272165904        1.1113576620
 H        -4.2882990069        8.5806930986       -3.2637580475
 H        -5.2322417308        9.1485450687       -1.8691861284
 H        -6.3998108347        7.6337135191       -4.2892366545
 H        -6.4055591212        9.3362596314       -3.9086640591
 H       -11.1566935830        8.6182749948       -1.3965045911
 H        -9.5943251969        8.4434979549       -0.5164445643
 H       -10.9862784807        7.7965709721        1.0594127679
 H       -10.5063840558        6.1886596320        0.4111750888
 H       -15.3049527144        4.9234141562       -0.2359091845
 H       -15.1507584774        3.3052605739        0.4572771413
 H       -13.1913513611        4.6431060323       -1.4909241083
 H       -14.5305396549        3.6520300787       -2.0133191038
 H        -9.2944318700        3.4888631429       -2.6852148144
 H        -9.1161326944        1.7707748933       -2.8746465197
 H        -8.0797788749        3.2018279397       -0.3888922301
 H        -7.1537900259        2.4032051261       -1.7340497901
 H        -9.2600061890       -1.7469429438        1.8730729832
 H        -9.4047699228       -1.0464259828        0.1597214812
 H       -11.5627673368       -2.2739003491        0.7011201774
 H       -11.7383227166       -0.6356844104        0.6557320304
 H       -15.4451725686       -1.3142508341        4.8077066328
 H       -14.7780806391        0.2938867884        5.3459110433
 H       -13.8141989486       -1.3543489254        5.4242736697
 H       -13.8141202443       -1.9029473662        0.5600060855
 H       -13.9073919910       -0.2078853359        1.0923432807
 H       -15.1902798130       -1.2479179885        1.5866485969
 H       -15.1303255661       -2.9344892785        3.4450268961
 H       -13.6891810531       -3.1666177275        4.3747731895
 H       -13.7049769106       -3.7330767172        2.7317144326
 H        -6.2407299249        0.0986489937        2.4409136694
 H        -6.0623902233       -0.0533259476        0.7087156813
 H        -7.1992907099       -1.1158341204        1.5168805436
 H        -8.3512363694        3.0734754235        1.7577285137
 H        -6.7018620245        2.6116958847        1.5294140739
 H        -7.5883325838        2.0052668194        3.0140863247
 H       -11.2470304995        0.5384748191       -3.4675480625
 H       -12.8137278187        0.2132722832       -2.9630970059
 H       -11.3414750729        0.0121449152       -1.9244051616
 H       -11.7619338732        4.0089234941       -3.2427808461
 H       -13.0517149485        3.0880539994       -3.6652668112
 H       -11.5136778638        2.5729973476       -4.3127359626
 H       -13.2843903731        6.2620103415        3.4253387065
 H       -12.3067274475        7.4549226816        2.6547311969
 H       -11.7385632031        5.8181914563        2.5993974213
 H       -15.5675247469        6.6012567046        1.5935930438
 H       -15.1284782492        7.2895250355        0.0835097248
 H       -14.7590551984        8.1677225081        1.5018260309
 H        -8.7882680979        8.6808056203       -4.9977416108
 H        -9.7773329101        9.3134625166       -3.5358910917
 H       -10.4132236575        7.9761647805       -4.5966246877
 H        -9.1383777053        5.4804756189       -4.2510109928
 H        -7.5014077545        5.7154573381       -3.5371015592
 H        -7.8909422105        6.5404467713       -4.9083857668
 H        -2.1579937186        5.3770774731       -0.4038228642
 H        -2.0001933455        6.3672547195       -1.8927407922
 H        -3.1024841131        4.9167580192       -1.7295182323
 H        -4.9810416286        5.1902303484        0.1870003421
 H        -5.6520516245        6.8690670947        0.3307224841
 H        -4.3440829300        6.2405800043        1.4289448753
 Na      -12.3208637215        1.9128688925        1.6185557705
