117

 C        -2.6910643729        8.2629747603        1.1094636247
 C        -3.0970418006        8.0769977635       -0.3239688201
 O        -2.7133213779        8.8551041258       -1.1677417892
 C        -3.8681315928        6.7950052802       -0.8337657771
 C        -4.7116514387        6.9458595164       -2.1240388869
 O        -5.0907082563        5.8586030306       -2.5927369546
 C        -5.0789747523        8.2727018130       -2.7186550272
 C        -6.4099469638        8.2014674378       -3.4901858156
 C        -7.6655964128        8.0890523714       -2.5790151085
 O        -7.6416764097        8.7020484154       -1.4943242010
 C        -8.9457010131        7.3960432892       -3.2127256782
 C        -9.8442901994        6.9072613106       -2.0395718938
 O       -10.1691567061        5.7266525717       -2.0180157960
 C       -10.2340485550        7.9200270332       -0.9893973587
 C       -11.0610066806        7.2566826188        0.1195494589
 C       -12.4775328427        6.9032198765       -0.1574446298
 O       -13.1203456252        7.0981722732       -1.1479385731
 C       -13.4021330383        6.2545100044        1.1588476885
 C       -13.5716678483        4.7108003734        1.0249269958
 O       -13.0593752566        3.9678788547        1.8297711573
 C       -14.5612668957        4.1961118492       -0.0558322530
 C       -13.8962603548        3.7827891970       -1.3879540750
 C       -13.2167013821        2.4326211798       -1.2462988374
 O       -13.5577011535        1.4802844437       -0.5554971823
 C       -11.9465268861        2.2319489939       -2.2205740067
 C       -10.6806786451        2.4571434253       -1.4580763019
 O       -10.6861693922        2.3003182655       -0.2196332505
 C        -9.2347434549        2.5866204279       -2.1124012627
 C        -8.1200822390        2.5578234543       -1.0186463756
 C        -8.0492669597        1.0840106188       -0.3051278608
 O        -8.1350757224        0.1166190708       -0.9749453769
 C        -7.9078178936        0.9816152218        1.2278355736
 C        -9.3498125715        0.4564538274        1.7285692907
 O       -10.1993818857        1.1203139584        2.2629775181
 C        -9.7047762170       -1.0102513341        1.4099480405
 C       -11.1944814453       -1.2557404044        1.3115920818
 C       -11.8969526515       -1.7436292613        2.7019540803
 O       -11.2379722121       -2.0639920970        3.6582600908
 C       -13.5504480425       -1.6415669709        2.8155457877
 C       -13.8548957260       -0.3849540397        3.7409405747
 O       -13.5121202540        0.6974056436        3.2359820611
 C       -14.4821727756       -0.6375789344        5.1445346107
 C       -14.1476800986       -1.3682086139        1.3766741101
 C       -14.0940154634       -2.9453259232        3.3226182922
 C        -6.7773260795       -0.0381240502        1.5484470477
 C        -7.5650352799        2.3765273865        1.8476428382
 C       -11.9025776085        0.7144831486       -2.5058468553
 C       -11.9731534213        3.0586785896       -3.5792472961
 C       -12.8176206536        6.5289296971        2.5549353714
 C       -14.6592959259        7.0782702146        1.0968524470
 C        -9.7297908616        8.4127571850       -4.1148840254
 C        -8.4947111657        6.1296314311       -4.0200209054
 C        -2.7701651473        5.7536539842       -1.1674219431
 C        -4.7768903485        6.0917165921        0.2438480304
 H        -2.1335031859        7.4946963930        1.5162356758
 H        -3.5476216108        8.4187759558        1.7861421703
 H        -2.1969795728        9.2112545723        1.1415482118
 H        -4.1732196638        8.5005265028       -3.3833080202
 H        -5.0939882902        9.0799161910       -1.9584567756
 H        -6.3087648050        7.3594094462       -4.1718560977
 H        -6.4231082783        9.1179648849       -4.1533719481
 H       -10.6521026723        8.7165792574       -1.6262814737
 H        -9.2940567734        8.3232766912       -0.5358093671
 H       -11.1182500341        7.7915749013        1.1488502125
 H       -10.6561075855        6.2625265931        0.2816178129
 H       -15.3141514205        4.9812551057       -0.2540290850
 H       -14.9822059074        3.3014200634        0.3785414877
 H       -13.1473372108        4.4847761434       -1.7139273481
 H       -14.5715648700        3.6412619758       -2.2542728212
 H        -9.2393709392        3.4867054162       -2.6263251102
 H        -8.9638457656        1.7923718309       -2.8727011130
 H        -8.4429349752        3.2333964150       -0.2088113696
 H        -7.1332297598        2.8047891013       -1.4111916591
 H        -9.3329817052       -1.6085727096        2.2990695094
 H        -9.1916492421       -1.1837304256        0.4848091927
 H       -11.4694012984       -1.9249157634        0.4316499544
 H       -11.6813276158       -0.3278011569        0.9020554244
 H       -15.4343540009       -1.1410384719        4.8841887638
 H       -14.7173173558        0.3256546905        5.5996410423
 H       -13.8768031715       -1.4187447189        5.6315287856
 H       -13.7440203727       -2.1814314077        0.7887493458
 H       -14.1292110753       -0.3844551480        0.9286792952
 H       -15.2523095680       -1.5569266985        1.5440982847
 H       -15.1704214317       -2.9312782811        3.5448489630
 H       -13.6656729613       -3.1784125708        4.2918658813
 H       -13.8803996097       -3.7198168316        2.5661603190
 H        -6.1904930963        0.1000716573        2.4877144665
 H        -6.0670459989       -0.2496132761        0.7606103323
 H        -7.2399249824       -0.9289256910        1.6405584735
 H        -8.1892269563        3.1636710802        1.4425938752
 H        -6.5531820486        2.6409406550        1.4681347052
 H        -7.6548822604        2.3365576928        2.9160358632
 H       -11.2269531086        0.3835522922       -3.2824004673
 H       -12.8549715641        0.3595417187       -2.7858393270
 H       -11.5354590109        0.1882252489       -1.6218560925
 H       -12.1561157050        4.0761845641       -3.3889369084
 H       -12.7498406556        2.6700210456       -4.1648316210
 H       -11.0580344579        2.8424827723       -4.0700908512
 H       -13.5574594589        6.3144441646        3.3167075338
 H       -12.4579409068        7.5006341402        2.6989518863
 H       -12.0291051322        5.8496256807        2.7076613488
 H       -15.4851359910        6.5771007119        1.7054753123
 H       -15.0213582829        7.1907951606        0.1124643606
 H       -14.4285758669        8.0750173631        1.4026967078
 H        -9.2358764636        8.5249397146       -5.0399982259
 H        -9.9299910741        9.3512803656       -3.6291009934
 H       -10.7545503211        7.9024143438       -4.3333929508
 H        -9.2836087214        5.3946298620       -4.2303720320
 H        -7.6814701726        5.6980563512       -3.4443155745
 H        -8.0018783608        6.3475585162       -4.9244989833
 H        -2.2769913902        5.5406544801       -0.1998966945
 H        -2.1225407118        6.1698792267       -1.9346137467
 H        -3.2580705987        4.8244673803       -1.4203650528
 H        -4.8687478816        5.0205247159        0.0310865690
 H        -5.7329876472        6.5999970733        0.1717498886
 H        -4.3608702856        6.1825832537        1.3008835348
 Na      -12.2886042031        1.8691800544        1.5513791114
