117

 C        -2.8450518192        8.0810529778        1.1917727311
 C        -3.0874183264        8.0730281296       -0.2999471210
 O        -2.5831141366        8.8715832580       -1.0808005615
 C        -3.8396170148        6.7493478765       -0.7971562157
 C        -4.6058011867        6.8186112824       -2.1696547339
 O        -5.0116304498        5.8270520307       -2.7505247504
 C        -5.0121603091        8.2261715202       -2.7674931155
 C        -6.3296995408        8.1031306935       -3.6020969082
 C        -7.5914547189        8.1846831735       -2.7433085991
 O        -7.6537478621        8.8301009113       -1.7377503827
 C        -8.9315805714        7.3849297148       -3.2277545690
 C        -9.8467595125        6.8759052170       -2.0200312375
 O       -10.1935983123        5.7081003732       -1.9944523593
 C       -10.2525542945        7.8473332329       -1.0028151539
 C       -11.0403299003        7.2416262880        0.2066218532
 C       -12.4905204432        6.9041968153       -0.1307773926
 O       -13.0727507100        7.1008701513       -1.1811333700
 C       -13.3137183787        6.3025166444        1.0906133990
 C       -13.5230588868        4.7696786485        0.9276962690
 O       -13.0470557614        4.0043323981        1.7622010301
 C       -14.5373074864        4.2116629908       -0.1048455944
 C       -13.9308577311        3.7844359919       -1.4513112525
 C       -13.1748305693        2.4509669760       -1.4074599575
 O       -13.4161811776        1.6837044095       -0.5331972916
 C       -11.9515984519        2.1709438970       -2.3241881476
 C       -10.6171272597        2.5328162689       -1.3462891459
 O       -10.6818598825        2.4906496678       -0.1555034044
 C        -9.2791397948        2.6156230950       -2.0021358083
 C        -8.2254796478        2.5514656621       -0.9641913337
 C        -8.1772121421        1.1455877462       -0.3154867648
 O        -8.3558882648        0.1556462543       -0.9831046577
 C        -7.9612706879        0.9811641848        1.2324663398
 C        -9.3259941495        0.4622013934        1.7571825340
 O       -10.0658883754        1.2608614385        2.2913576743
 C        -9.7076838722       -1.0681721451        1.6594651484
 C       -11.2271099419       -1.2335511092        1.5069244438
 C       -11.9415451697       -1.7028497029        2.7144055507
 O       -11.3477765018       -2.1381636547        3.6770901137
 C       -13.5181202305       -1.7402327361        2.7810218256
 C       -13.7903386166       -0.3765563224        3.6797922041
 O       -13.5140699650        0.7744335743        3.3450396956
 C       -14.3470145164       -0.4925424129        5.0707003282
 C       -14.2363450296       -1.5067072839        1.4261829801
 C       -14.0343482669       -3.0130481146        3.3459004907
 C        -6.8516805488       -0.0011916630        1.5922801419
 C        -7.5031147299        2.4111348657        1.9519442068
 C       -11.9337669808        0.6506411066       -2.5165101797
 C       -11.9543776236        2.9980361416       -3.6389195945
 C       -12.7819023866        6.6370292992        2.5328930193
 C       -14.7103199407        6.9623922091        1.0525853887
 C        -9.8875196732        8.3044849900       -4.0243753006
 C        -8.6593504800        6.1520673639       -4.0754177192
 C        -2.6811505868        5.6991372685       -1.0433563191
 C        -4.8106839383        6.0822573238        0.2212507709
 H        -2.1992892136        7.2497017148        1.3957812948
 H        -3.6575706083        7.9964132169        1.8683404577
 H        -2.3659104240        9.0501801239        1.4670685717
 H        -4.1532645246        8.6231946499       -3.3367488637
 H        -5.1935352820        8.9503073713       -1.9704565113
 H        -6.2822173740        7.1259022149       -4.0923598984
 H        -6.3247891787        8.8401585220       -4.4166883218
 H       -10.7500050961        8.6322475498       -1.5577373110
 H        -9.2961898619        8.3183530581       -0.6913979113
 H       -11.2673945573        8.0536775997        0.9754806902
 H       -10.6243018952        6.3925155438        0.7493673789
 H       -15.2815987115        5.0088484332       -0.3966659384
 H       -15.0163341457        3.3118724825        0.3853094433
 H       -13.2866653588        4.5667989580       -1.8763830089
 H       -14.7577312185        3.6591959977       -2.2306748333
 H        -9.2293531920        3.5856821177       -2.5377470655
 H        -9.0983272834        1.8424427854       -2.7551721779
 H        -8.4337858626        3.2838484964       -0.1625798440
 H        -7.2390602468        2.6867178961       -1.4065754216
 H        -9.3604974651       -1.4895299649        2.6230310961
 H        -9.1922647894       -1.4632550485        0.7739322547
 H       -11.4267969042       -1.9423493620        0.7067338308
 H       -11.7296761535       -0.3653699875        0.9924373453
 H       -15.3510527103       -0.8097520065        5.0490812965
 H       -14.2891380836        0.5767718709        5.2722191488
 H       -13.7632887412       -1.2080725499        5.6874154786
 H       -13.7888072617       -2.3205917168        0.7840645004
 H       -14.1427154057       -0.4765583538        1.0200245585
 H       -15.2732742708       -1.6239307457        1.5276747777
 H       -15.0479403811       -2.8237524176        3.6799301506
 H       -13.5699741946       -3.2581591902        4.3012374817
 H       -14.0925392130       -3.8349220999        2.5740657855
 H        -6.4142007918        0.2918910847        2.5257484267
 H        -6.0298506620        0.0083001498        0.9068505368
 H        -7.1329161545       -1.0393637670        1.6229956741
 H        -8.3339108046        3.1155826760        1.7826062780
 H        -6.6831966195        2.8225790893        1.4225142610
 H        -7.3590866623        2.3061763505        3.0363982155
 H       -11.0607299259        0.1704736832       -3.0768029446
 H       -12.8263817227        0.3288197796       -3.0607822300
 H       -11.9335351506        0.1817830788       -1.5710053639
 H       -12.4466636016        3.9713806253       -3.3848479814
 H       -12.4225913906        2.4803358238       -4.5138839688
 H       -10.9514810370        3.1256974196       -3.8603787084
 H       -13.4664265886        6.2226573639        3.2005147943
 H       -12.6419036595        7.7022132600        2.7696604728
 H       -11.8936215098        6.0863803803        2.7230543748
 H       -15.4151335819        6.5266954478        1.7887943518
 H       -15.1696211326        6.8598928933        0.0625615109
 H       -14.5436463317        8.0574349008        1.1387796304
 H        -9.4451188313        8.4697800717       -4.9777733892
 H        -9.9949244068        9.2616173250       -3.5112392625
 H       -10.8255898241        7.9081195172       -4.0907328793
 H        -9.6133933331        5.6712191876       -4.2395915018
 H        -7.9668242308        5.4542532148       -3.5956172571
 H        -8.2312669366        6.3174050502       -5.0675681705
 H        -2.0749325811        5.4866923526       -0.1320123947
 H        -2.1631882715        6.1394329701       -1.8721506596
 H        -3.1708654213        4.7359840868       -1.3309835618
 H        -5.1249714656        5.0669655209       -0.1461203661
 H        -5.7103441886        6.7478328013        0.3016252679
 H        -4.3172017626        5.9576199919        1.1502500452
 Na      -12.3005087550        1.7502163384        1.5103408380
