117

 C        -2.9718810234        7.9910005167        1.2714276408
 C        -3.1356694177        7.8653153423       -0.2318621758
 O        -2.6850933483        8.7295305333       -0.9229968258
 C        -3.7265024015        6.5970726178       -0.8474858804
 C        -4.4481950249        6.7491355360       -2.2937968672
 O        -4.7135017508        5.6837876575       -2.8575263261
 C        -5.0982593753        8.0815550043       -2.7439748400
 C        -6.3088742405        7.8410775938       -3.7236766763
 C        -7.6602823068        8.0637462519       -2.9651024264
 O        -7.7609984242        9.0422067266       -2.2152835993
 C        -9.0277351808        7.3312037380       -3.3013405696
 C        -9.8102479475        6.8366815513       -2.0482522051
 O       -10.0832421007        5.6679853266       -1.8051267515
 C       -10.2880158325        7.8380514423       -0.9724870863
 C       -10.9679259174        7.3023025585        0.2120203614
 C       -12.4717881477        6.9105390676       -0.0897474397
 O       -12.8620099380        6.9481846921       -1.2284916417
 C       -13.4247994145        6.4026815525        1.0769352632
 C       -13.5276687809        4.8110279456        0.8440863381
 O       -12.8071316040        4.0720823439        1.4710730424
 C       -14.5818896348        4.2205429459       -0.1702907536
 C       -13.8236249745        3.8902646471       -1.5141315346
 C       -13.1489835990        2.5138701520       -1.4512107884
 O       -13.4662733846        1.8168478630       -0.4531878835
 C       -11.8994465897        2.1929806296       -2.3184942654
 C       -10.7241916687        2.5978488068       -1.3899158449
 O       -10.8625658739        2.7560080993       -0.1791764387
 C        -9.2782408802        2.7461712825       -1.9524296800
 C        -8.0963420957        2.5285419335       -0.8818900607
 C        -8.2872605285        1.1463694946       -0.1876895514
 O        -8.7600735345        0.2061325931       -0.7792854319
 C        -7.9820475456        1.0780480209        1.3811772941
 C        -9.4329114752        0.5884783031        1.9316980817
 O       -10.1642709701        1.4460344244        2.3491846394
 C        -9.7225985769       -0.9243850804        2.0172694306
 C       -11.1567578336       -1.2480248635        1.6067655659
 C       -11.9837050481       -1.7608041846        2.7931779402
 O       -11.3924520552       -2.2446434931        3.7290386248
 C       -13.5022305944       -1.6838570886        2.8372754476
 C       -13.7353874793       -0.3940140445        3.6563897854
 O       -13.5018632740        0.6947508318        3.1586466195
 C       -14.1655410847       -0.4597237073        5.0927765415
 C       -14.1640756790       -1.5231118212        1.4670553550
 C       -14.0825238968       -2.8604270521        3.6443912833
 C        -6.8191743625       -0.0418215248        1.4139464492
 C        -7.5488261222        2.3642571247        2.0592742962
 C       -11.8237243139        0.6248993900       -2.5607618685
 C       -11.7266208751        2.9025921898       -3.7345083354
 C       -12.8755858111        6.5985428816        2.4637900069
 C       -14.8245399873        7.0625039297        0.9954125523
 C        -9.8930797803        8.4013645110       -3.9363509630
 C        -8.7404704234        6.1826883979       -4.2775822256
 C        -2.6044997935        5.5520095405       -1.0011845923
 C        -4.8838412595        6.0802281056        0.1134889355
 H        -2.6205186481        7.0199416457        1.6604327058
 H        -3.9813016106        8.1009018201        1.7809650926
 H        -2.4228296697        8.8463112326        1.6233557756
 H        -4.3412633855        8.7347302879       -3.1505589479
 H        -5.4136669195        8.5754175158       -1.8350726143
 H        -6.1104239220        6.8707624141       -4.1556448843
 H        -6.3132017624        8.5624409494       -4.5426368291
 H       -10.9401660556        8.5733061256       -1.4856463581
 H        -9.4671451354        8.4828912802       -0.6690205834
 H       -10.9451219043        8.0278001664        0.9935688847
 H       -10.6084426552        6.3860353540        0.6777342592
 H       -15.3490215190        4.9156988259       -0.4398279566
 H       -14.9786723474        3.3022229596        0.2330571192
 H       -12.9755070730        4.5884072955       -1.6609504273
 H       -14.4449796417        4.0670258824       -2.3704164972
 H        -9.0914080727        3.7361995460       -2.3946108521
 H        -9.2051267510        2.0249935707       -2.7977141323
 H        -8.1460231607        3.3385232860       -0.1719193117
 H        -7.0895673602        2.4894020805       -1.3070208750
 H        -9.4692757058       -1.1631491005        3.0448250098
 H        -9.0486689239       -1.4233530898        1.3271288448
 H       -10.9969742441       -1.9917458245        0.8342328116
 H       -11.6756480334       -0.5363998152        1.0306286144
 H       -15.1985072158       -0.8685745940        5.0735739549
 H       -14.0344693995        0.5402628144        5.4928668337
 H       -13.5171127566       -1.1763036659        5.5994578862
 H       -13.9498480570       -2.3101949152        0.8184668660
 H       -13.9622915879       -0.5542544291        1.0886751693
 H       -15.2628982963       -1.4066784639        1.6949285667
 H       -15.1300657901       -2.8433708616        3.9965354083
 H       -13.5130002702       -2.9371883368        4.5557874173
 H       -14.0589407648       -3.7246779833        3.0380770409
 H        -6.7607850558       -0.7324915946        2.3126943369
 H        -5.7655587620        0.3446430781        1.3896441199
 H        -6.9364026643       -0.6350585055        0.5451742829
 H        -8.3626653647        3.0348860518        2.2760262119
 H        -6.7020711284        2.8311730950        1.4804657956
 H        -7.1184663264        2.0467175846        2.9995927891
 H       -10.8249418937        0.2897006668       -2.6674342853
 H       -12.3610470114        0.2497800290       -3.4384020887
 H       -12.2482164069        0.0495019835       -1.6628720266
 H       -11.9667586114        3.9510489559       -3.5671898217
 H       -12.4495787045        2.4123724834       -4.3858140424
 H       -10.6765656508        2.7260393239       -4.1778954828
 H       -13.4670011462        6.1390035907        3.3448669624
 H       -12.7649397034        7.6665102900        2.6404072892
 H       -11.8794089212        6.0787909416        2.5004460100
 H       -15.5193193565        6.3821966510        1.5059081504
 H       -15.1806140993        7.1169100386       -0.0289421152
 H       -14.8565691085        8.0582006639        1.3975748808
 H        -9.4569448319        8.7458861837       -4.8669266507
 H       -10.0988794868        9.2501649743       -3.3218106955
 H       -10.9305277334        7.8652325156       -3.9739703949
 H        -9.6981041863        5.7462312837       -4.6442145156
 H        -8.1547883162        5.3522418285       -3.8555055002
 H        -8.2448898213        6.5096852804       -5.1866900447
 H        -2.3020468055        5.2608576410       -0.0150617666
 H        -1.8188859371        6.0196998252       -1.6145311837
 H        -3.0283922499        4.7118391783       -1.5124432796
 H        -5.6131805236        5.5976837883       -0.4714238933
 H        -5.4079353334        6.9275745298        0.4499510140
 H        -4.5340833637        5.4503131618        0.9699916624
 Na      -12.3311873986        1.7371081169        1.5472008166
