117

 C        -3.1080524449        7.9093363650        1.2323610434
 C        -3.2890730271        7.6784939241       -0.2608450896
 O        -3.0901230862        8.4793436692       -1.1357718474
 C        -3.8300026753        6.2920401594       -0.7940143430
 C        -4.3912031337        6.5191694301       -2.2885497530
 O        -4.2350749930        5.7094921752       -3.1933700441
 C        -5.2796131100        7.7680576259       -2.5310689699
 C        -6.4909985991        7.3706380439       -3.4192752212
 C        -7.8099937133        8.1089019858       -3.1199994149
 O        -7.7952773482        9.0719809284       -2.3436424134
 C        -9.1850120437        7.4375519012       -3.4887472407
 C        -9.7605932404        6.9207605239       -2.0463471825
 O        -9.5097739330        5.7671744645       -1.7946872400
 C       -10.3411087777        7.9775657726       -1.0230180506
 C       -10.8983889589        7.2399337343        0.2022735201
 C       -12.3723269860        6.9238930060       -0.0987149187
 O       -12.7367488827        6.8605390331       -1.2305025150
 C       -13.4186886778        6.5177169117        1.0273000724
 C       -13.5300791498        5.0041333781        0.6744748897
 O       -12.8145079549        4.2684024245        1.3363816628
 C       -14.4411832770        4.4580294389       -0.4472563274
 C       -13.7239230626        3.8943846590       -1.6660022329
 C       -13.1804677241        2.4784403807       -1.5320008675
 O       -13.7672356309        1.6458679785       -0.8131105320
 C       -11.8546113854        2.1454006710       -2.2373870008
 C       -10.4982694974        2.6234188168       -1.2972791411
 O       -10.6531815452        2.8256162189       -0.1111566608
 C        -9.0661318722        2.6954320995       -1.9566235028
 C        -7.9811575530        2.5200672762       -0.7745665286
 C        -8.4474827227        1.2546506318       -0.0501508087
 O        -9.2344590094        0.4718518911       -0.5740871514
 C        -8.0075023548        1.0243506677        1.4040989549
 C        -9.3652884131        0.5741876603        2.0546216543
 O       -10.1626187212        1.3813380201        2.4482670208
 C        -9.6856735659       -0.9176685395        2.1158831256
 C       -11.1695237851       -1.1917530451        1.8978092768
 C       -11.9236844275       -1.8197826861        3.0928103898
 O       -11.4379761793       -2.4839906358        3.9835359311
 C       -13.4898028020       -1.6140871001        2.9983090661
 C       -13.6973743422       -0.2883566147        3.6899723510
 O       -13.6434393663        0.7826498226        3.1030573876
 C       -13.9533539862       -0.2754124050        5.2145265542
 C       -13.9666525851       -1.5243982239        1.5171137584
 C       -14.0907058165       -2.8505536373        3.7604523180
 C        -6.9002904543       -0.0720340811        1.5835124527
 C        -7.5631918926        2.3315048032        2.1237117450
 C       -11.5577865125        0.6593454113       -2.4654516873
 C       -11.7847377319        2.9442744771       -3.6012119282
 C       -12.8224249721        6.7375368329        2.4032999325
 C       -14.7084869193        7.2637666401        0.7501004693
 C       -10.1004300477        8.4850627822       -4.2171716850
 C        -8.9842485797        6.2593015126       -4.4095155225
 C        -2.6265747097        5.3539467838       -0.7723552403
 C        -5.0098837253        5.8365781368        0.0738522695
 H        -3.1181500870        6.9564380297        1.8144870567
 H        -3.7915439705        8.5752921749        1.7192903608
 H        -2.1540799401        8.3308998544        1.3486110664
 H        -4.7984389618        8.5997904769       -3.0077172607
 H        -5.7065017282        8.1667916832       -1.5839266304
 H        -6.6605650591        6.2804088425       -3.2611096607
 H        -6.2444929829        7.4581049893       -4.4677983795
 H       -10.9706860808        8.6838636230       -1.5531857377
 H        -9.4902881189        8.6027824032       -0.8084161389
 H       -10.9089170023        7.7553815928        1.1150010441
 H       -10.3798744354        6.2687589297        0.5223506004
 H       -15.1591525419        5.2253877102       -0.7797242565
 H       -15.0197930890        3.5955366038        0.0421776894
 H       -12.8327855918        4.5502089360       -1.9339710784
 H       -14.2933963956        3.9111872191       -2.6073554392
 H        -8.9606677022        3.6241778374       -2.6057797097
 H        -8.9732196661        1.8641667582       -2.6095930539
 H        -7.9782425535        3.3118035121       -0.0368966694
 H        -6.9253770717        2.4161803948       -1.1325170347
 H        -9.4229215472       -1.3677638466        3.0766722410
 H        -8.9625390435       -1.3834064263        1.3752912709
 H       -11.2757320995       -2.0606909132        1.2082046035
 H       -11.6873504479       -0.4155967353        1.3514728045
 H       -14.8044875314       -0.9444462885        5.4167008746
 H       -13.9853903401        0.7607670486        5.4965825294
 H       -13.0547380010       -0.6198112909        5.6668886039
 H       -13.5390134265       -2.3697873438        0.9701140260
 H       -13.5065486431       -0.5940834371        1.1156736985
 H       -15.0797593128       -1.5520465680        1.3176438135
 H       -15.2001748219       -2.7387743316        3.8252056204
 H       -13.6938618078       -2.9742544159        4.7888574347
 H       -14.0022164050       -3.7987956637        3.2545604345
 H        -6.7926893968       -0.3319949287        2.6188657426
 H        -5.9597378094        0.3871745423        1.2982383749
 H        -7.0037332758       -0.9920699619        0.9874021917
 H        -8.3342943631        3.0829156975        2.2024890119
 H        -6.6182620717        2.6615986466        1.7106554495
 H        -7.2727129146        2.0764135858        3.1471681280
 H       -10.8060473491        0.5537222191       -3.1649406809
 H       -12.4377651695        0.1057070010       -2.8376726052
 H       -11.3299907312        0.0605236185       -1.5506546908
 H       -11.1512181887        3.7883671959       -3.5420555548
 H       -12.7748466439        3.1749415098       -3.9449385427
 H       -11.2369293753        2.2853794092       -4.3751954665
 H       -13.6392172060        6.6639114370        3.1010406781
 H       -12.5438652215        7.7288939113        2.5085751235
 H       -12.0366598557        6.0574486275        2.6657049523
 H       -15.5491143510        6.9581464258        1.3389977644
 H       -14.9176014158        7.2067608814       -0.3605751136
 H       -14.5110421982        8.3130101335        1.0529103645
 H        -9.5533766152        8.6976463772       -5.1098616132
 H       -10.0423748059        9.3779610834       -3.7207441711
 H       -11.1467385712        8.2166125842       -4.3955898237
 H        -9.9065014072        5.7630308355       -4.6496312697
 H        -8.4672508741        5.4678339526       -3.9093720614
 H        -8.5045117460        6.4988692702       -5.3604116485
 H        -2.3509584551        5.2710367695        0.2742619867
 H        -1.7509876884        5.7702187438       -1.3413907050
 H        -2.9281520705        4.4198624940       -1.2594528030
 H        -5.2022526281        4.7566344781        0.0608856041
 H        -5.9825542685        6.2748609878       -0.1933802879
 H        -4.7347218538        6.1600245787        1.0912614796
 Na      -12.4112454928        1.9926553517        1.3585734624
