117

 C        -3.0455726346        7.8682568917        1.1422002572
 C        -3.4305587975        7.6718171574       -0.3391069261
 O        -3.2290744969        8.5596054905       -1.1725320942
 C        -3.9384038190        6.2249247171       -0.7573596880
 C        -4.3980524011        6.3427184403       -2.3375611479
 O        -3.8575389080        5.6822237143       -3.1701821284
 C        -5.5008112724        7.3812240257       -2.3908793783
 C        -6.6758105747        7.0917365445       -3.3550808035
 C        -7.8231025051        8.0247942324       -3.1031449508
 O        -7.7487632474        9.0561191386       -2.5269007951
 C        -9.2495490227        7.4095417997       -3.4865222266
 C        -9.6555513370        6.9658891892       -2.1569789332
 O        -9.3849324296        5.8571508797       -1.7152865604
 C       -10.1891214900        8.0749905294       -1.1500232743
 C       -10.8849495449        7.5088322853       -0.0095415404
 C       -12.3464932889        7.0023363359       -0.3569596913
 O       -12.7017589075        6.9484682165       -1.5250337396
 C       -13.3694758146        6.5464804301        0.8311499304
 C       -13.5842431161        5.0157184522        0.7375012041
 O       -13.0509913561        4.2378113419        1.5333822667
 C       -14.4315260760        4.4587045363       -0.3681234018
 C       -13.6324044376        3.9940524815       -1.6106988492
 C       -12.9629109296        2.6390460295       -1.4865011487
 O       -13.4260006401        1.7717869389       -0.8027060147
 C       -11.7152631054        2.1782026398       -2.3018344054
 C       -10.5237398401        2.6091624358       -1.3058046480
 O       -10.8038646609        2.7786256957       -0.1329239164
 C        -9.1025652017        2.8527916516       -1.8721015361
 C        -8.0613170701        2.4174437826       -0.9598677032
 C        -8.4385794265        1.1669485821        0.0037785468
 O        -9.0735363989        0.2222579450       -0.4382754172
 C        -7.9589365928        1.0171464668        1.6047297095
 C        -9.3039914497        0.4789650623        2.2486706385
 O       -10.2667383630        1.2282787491        2.5063678343
 C        -9.6843198867       -0.9911171420        2.2667769485
 C       -11.1504681280       -1.2099110345        1.9651497528
 C       -11.9236038073       -1.7647971959        3.1375825484
 O       -11.3872697831       -2.3399672489        4.0454596097
 C       -13.4963863259       -1.6278898033        3.0702306224
 C       -13.6443706094       -0.2026891241        3.6985770325
 O       -13.5589498936        0.8445694045        3.0556141824
 C       -13.8534048137       -0.1029002789        5.1555982901
 C       -14.0991419376       -1.6373686902        1.6038173458
 C       -14.2861784244       -2.6715458913        3.8374408646
 C        -6.7579756031        0.0831603100        1.6056573831
 C        -7.6206123556        2.4161971016        2.2865181418
 C       -11.7805844634        0.6349962866       -2.4341225489
 C       -11.5440823086        2.8475332716       -3.6429653191
 C       -12.7786011440        6.9480146681        2.2044488908
 C       -14.6727039059        7.3965505127        0.6664239615
 C       -10.1463375729        8.5511361742       -3.9494037089
 C        -9.2323031021        6.3399503907       -4.5649700232
 C        -2.7754032123        5.1582960046       -0.6964190812
 C        -5.0463325941        5.6054476797        0.0638344770
 H        -2.9018568504        6.9497210124        1.7095974807
 H        -3.9180796829        8.3308105752        1.6542554861
 H        -2.1276716184        8.5073919593        1.3788506577
 H        -5.0923172715        8.3254664494       -2.7718457760
 H        -5.9132185890        7.6401480723       -1.4521348075
 H        -7.0483433456        6.0988841646       -3.2514521106
 H        -6.3474731414        7.1626854586       -4.4024808294
 H       -10.7035107126        8.8048448924       -1.7438552137
 H        -9.3630432855        8.6984644467       -0.7460056954
 H       -10.8592838072        8.0642190382        0.9695004557
 H       -10.3714488756        6.6454835690        0.2683737956
 H       -15.0877699372        5.2401560588       -0.7643056031
 H       -15.0329639080        3.6665495564        0.0096921102
 H       -13.0236307017        4.7731912581       -1.9915606911
 H       -14.3258789761        3.7917533721       -2.4568110872
 H        -9.0403199245        3.8940929695       -2.1068518644
 H        -8.8578096640        2.3036390689       -2.8341591216
 H        -7.6148143182        3.2019556859       -0.3113323922
 H        -7.2709034939        2.1259347597       -1.6089522894
 H        -9.4778845639       -1.4088980675        3.2603016017
 H        -9.0035081410       -1.4934911018        1.6398587016
 H       -11.3067537344       -1.9544483700        1.2016445382
 H       -11.5877606029       -0.3081613179        1.5475837806
 H       -14.7903706373       -0.5447534356        5.3072534811
 H       -13.8127954583        0.9640753296        5.3317203377
 H       -12.9959192541       -0.4134485414        5.7549151212
 H       -13.7920155381       -2.4084533608        0.8702172476
 H       -14.0389877291       -0.6779079776        1.1156503752
 H       -15.0799694368       -1.9024235074        1.8217184813
 H       -15.3307234973       -2.4522508467        3.9858339926
 H       -13.7920112169       -2.8982690314        4.7912648198
 H       -14.2247221680       -3.6883889632        3.3568086339
 H        -6.2118361529        0.1451796839        2.5495715453
 H        -6.1063058226        0.1901628675        0.7321683712
 H        -7.1427220909       -1.0196816252        1.5844422680
 H        -8.5640168119        2.9842035234        2.3454681610
 H        -6.8341332192        2.9657794091        1.8022677257
 H        -7.2695778534        2.3212957783        3.3086656815
 H       -10.8769181841        0.3792313685       -3.1122432823
 H       -12.6674210255        0.1604558955       -2.8481120443
 H       -11.6395273996        0.1102960522       -1.5301889568
 H       -11.7761456449        3.9725363940       -3.7045007688
 H       -12.1200253457        2.2316266617       -4.3881265930
 H       -10.5107464105        2.8447542539       -3.8613949144
 H       -13.3807380383        6.6133867572        3.0530636344
 H       -12.8151712416        8.1018917591        2.2954958352
 H       -11.7035150143        6.6685053241        2.2432928443
 H       -15.3247680763        7.1136053615        1.5277594154
 H       -15.1847328129        7.2282350271       -0.2611840427
 H       -14.4754842876        8.4365697015        0.9085325601
 H        -9.9658230840        8.8771373316       -5.0116975573
 H        -9.9944972630        9.4883569310       -3.2968825884
 H       -11.1330462496        8.1476786651       -3.9229933565
 H       -10.1133350577        6.2461063439       -5.1910531486
 H        -9.1518242574        5.3124709345       -4.1862012517
 H        -8.4062444345        6.5639365519       -5.2290659943
 H        -2.3145701724        5.2321843319        0.3036548837
 H        -2.0244634749        5.3914938978       -1.4112873606
 H        -3.2184419815        4.2007650082       -0.9886087683
 H        -5.1275427096        4.5722117339       -0.2997418159
 H        -6.0250159585        6.0821815271       -0.0979269237
 H        -4.8878011597        5.5721351318        1.1279660598
 Na      -12.4757623994        1.8442606707        1.2534973080
