117

 C        -3.0746443598        7.7056899858        1.1634082534
 C        -3.3731128819        7.4791272493       -0.2738142433
 O        -3.4368853886        8.3929341783       -1.0505084889
 C        -3.8365890655        6.0595442538       -0.7541178113
 C        -4.4536320044        6.2127514425       -2.2265063886
 O        -3.8588419585        5.7119843492       -3.1901156446
 C        -5.5682665978        7.2873383562       -2.4966919392
 C        -6.7111271898        6.8053362616       -3.3906542578
 C        -7.8336882034        7.8571144069       -3.3708768344
 O        -7.4955905354        8.9730399886       -2.9901508164
 C        -9.3503004711        7.5590238523       -3.5452022335
 C        -9.7230137484        7.0907080002       -2.1329997806
 O        -9.4285942857        5.9426963644       -1.8338211977
 C       -10.1217234842        8.1628325815       -1.1492114203
 C       -11.0362311029        7.6993149276       -0.0118556188
 C       -12.3732974159        7.0178411102       -0.4045318696
 O       -12.7476504030        6.9721111522       -1.5747968975
 C       -13.3226907317        6.5240526126        0.7413554719
 C       -13.5940417255        5.0053914144        0.6931238374
 O       -13.1585000886        4.3283382687        1.5916977949
 C       -14.3459447838        4.4374823046       -0.4376609726
 C       -13.4989440924        4.1174244246       -1.6718769234
 C       -12.9295570389        2.7184587724       -1.5129057524
 O       -13.4881370624        1.9739342768       -0.6965065950
 C       -11.7060269363        2.2330324219       -2.3107408752
 C       -10.4856557606        2.5358103478       -1.2947304558
 O       -10.6722927609        2.6088254218       -0.1007579192
 C        -9.0488623989        2.5643151550       -1.8724097043
 C        -8.0022863358        2.3346966854       -0.6668831039
 C        -8.4394830830        0.9969488615        0.0691337887
 O        -8.8552803371        0.0173118000       -0.4553854513
 C        -8.1030313890        1.0434714801        1.6501008591
 C        -9.4200549251        0.5504230310        2.2718223110
 O       -10.2670016006        1.3498177737        2.5259164476
 C        -9.6955955383       -1.0153740342        2.2943909992
 C       -11.1003088376       -1.5424438360        1.8363291232
 C       -12.0197498829       -1.8278248595        3.1359900934
 O       -11.5259820254       -2.1517200998        4.1899801393
 C       -13.5595205341       -1.6182151702        3.1248612704
 C       -13.6291413019       -0.1441800018        3.6673351635
 O       -13.5116805039        0.8724039878        3.0235128262
 C       -13.8603545904        0.1099913176        5.1670551438
 C       -14.1352111910       -1.5719550886        1.6976157368
 C       -14.2329434308       -2.5563273656        4.0790673411
 C        -6.7330501354        0.2067005113        1.7663383556
 C        -7.8173515284        2.4655909832        2.1771939157
 C       -11.5845359310        0.7236352924       -2.4571665911
 C       -11.6081240059        2.8887579277       -3.6649927053
 C       -12.7517713129        6.8703204766        2.1427501222
 C       -14.6537726561        7.3277476243        0.4507499439
 C       -10.0604741867        8.7802898177       -4.0847939671
 C        -9.5409050735        6.3880994834       -4.5798517034
 C        -2.6112971133        5.0960718755       -0.7125446199
 C        -5.0574794704        5.6716010520        0.2432631805
 H        -2.5129982877        6.9016288408        1.6016210414
 H        -3.9474657027        7.8234642293        1.7885609129
 H        -2.4318169535        8.5233206936        1.2819573114
 H        -5.1287451909        8.1698955612       -2.9817740692
 H        -6.1127118480        7.7037423638       -1.5877970160
 H        -7.0766808436        5.7759053401       -3.0953148374
 H        -6.4047675185        6.7113980451       -4.4460429601
 H       -10.4562099876        9.0332023986       -1.7425308425
 H        -9.1537776846        8.5060572232       -0.7759383689
 H       -11.3867835288        8.5110008080        0.5673888570
 H       -10.5763341455        7.0752972404        0.8292636764
 H       -15.1641588301        5.0268211770       -0.7964542706
 H       -14.8075482887        3.4904220247       -0.1101887678
 H       -12.7775291315        4.8889502427       -2.0250690335
 H       -14.2267550850        4.0353279339       -2.4607242823
 H        -8.9146575066        3.4997227029       -2.4529256586
 H        -9.0013827316        1.7715141888       -2.5659430135
 H        -8.1016136573        3.1541674462        0.0284568676
 H        -6.8949219206        2.3005985868       -0.8812192671
 H        -9.3846559570       -1.2984570880        3.3088328018
 H        -8.9170448960       -1.5561030893        1.6723048777
 H       -10.9137433174       -2.5324946396        1.2812048277
 H       -11.5724042432       -0.8358241387        1.0944384254
 H       -14.9787940186       -0.0512568008        5.3597102522
 H       -13.4846766593        1.1226505486        5.3837765805
 H       -13.1233465717       -0.4420485641        5.7441884485
 H       -13.9950987648       -2.5466004583        1.3027539350
 H       -13.6402897913       -0.9124353173        1.0092598689
 H       -15.2684084829       -1.4993280512        1.6539664249
 H       -15.2020191093       -2.0913990433        4.2721444251
 H       -13.6957712441       -2.7358012462        4.9742031514
 H       -14.3234469639       -3.5419285675        3.7552159727
 H        -6.4183332330       -0.0725752479        2.7925128844
 H        -5.9576226493        0.6739737759        1.1486951709
 H        -6.9047331645       -0.6514123430        1.3029346505
 H        -8.6747510733        3.0872292898        1.9329779072
 H        -6.8948890938        2.9491156606        1.7662387161
 H        -7.7478937286        2.4789464093        3.2711102074
 H       -10.6158261702        0.4373131242       -2.6947630915
 H       -12.2179307568        0.3302751615       -3.2223048700
 H       -11.8835644645        0.1491036499       -1.5542610954
 H       -12.1856181184        3.7571021161       -3.7318786469
 H       -11.8696713412        2.2644251469       -4.4570431565
 H       -10.5907369456        3.2649124809       -3.8034639753
 H       -13.5454416666        6.7098829299        2.8952340035
 H       -12.3816385831        7.8333835867        2.2540325292
 H       -11.9082669744        6.2147484961        2.3095946315
 H       -15.5086007488        7.0668309195        1.0697097566
 H       -14.8458626150        7.1556341564       -0.5817123669
 H       -14.4159691892        8.3507734107        0.6129605329
 H       -10.1557967048        8.7390500571       -5.1453899353
 H        -9.4699883079        9.6211940831       -3.8091035531
 H       -11.1667603906        8.8430317781       -3.7718881535
 H       -10.6156555179        6.2931430757       -4.7927151858
 H        -9.2862560406        5.4078046118       -4.1691529820
 H        -9.0209983496        6.4643014108       -5.5354104909
 H        -2.1986688335        5.0068651275        0.2555301888
 H        -1.8207397403        5.5308503607       -1.3369580798
 H        -2.9480419791        4.1843253527       -1.1351003803
 H        -5.7644279850        4.9672604796       -0.1676832780
 H        -5.5435207861        6.5703224991        0.5719374571
 H        -4.7134520531        5.1275524186        1.1647220090
 Na      -12.3662619270        1.9612370152        1.4613037181
