117

 C        -3.0028598164        7.5693906415        1.2232308411
 C        -3.4253524630        7.5154055261       -0.2346772265
 O        -3.4386261515        8.4338224515       -1.0442026663
 C        -3.8843201509        6.0930360399       -0.7814979932
 C        -4.3914154200        6.2271562268       -2.2491941834
 O        -3.9181240440        5.5956311315       -3.1431684758
 C        -5.5646840211        7.1627409757       -2.4409925896
 C        -6.6955480211        6.6888468535       -3.3165671604
 C        -7.7007365050        7.8598452322       -3.4462587269
 O        -7.4463830137        9.0053669648       -3.2880157833
 C        -9.3098327347        7.5590630251       -3.6489075322
 C        -9.7155687176        7.1642802514       -2.1734615497
 O        -9.6171231674        5.9942317088       -1.8134599528
 C       -10.1273562303        8.2680312406       -1.1957456926
 C       -10.9785027410        7.7762303657        0.0037343612
 C       -12.2841142933        7.0918165229       -0.3969671685
 O       -12.6353163142        6.9603785969       -1.5797060851
 C       -13.3326083745        6.5753109149        0.7370385111
 C       -13.5905451487        4.9617154657        0.6578720249
 O       -13.1284583626        4.2158402702        1.4882426014
 C       -14.4945813140        4.5095954695       -0.5120458037
 C       -13.5608826923        4.0953072479       -1.6914867953
 C       -12.9313017183        2.6592838075       -1.4866022773
 O       -13.4925422627        1.8932828633       -0.7290124030
 C       -11.6294732106        2.2475118295       -2.2719124867
 C       -10.4024954059        2.4596779815       -1.3341555510
 O       -10.5894634558        2.5540186426       -0.1312897778
 C        -9.0269710450        2.4002328664       -1.8979240378
 C        -8.0855631141        2.3250130787       -0.7415322228
 C        -8.2843306870        1.0831374144        0.0721104509
 O        -8.7261540970        0.0847684501       -0.4696763099
 C        -8.0917620857        1.0720994258        1.6195289019
 C        -9.5402375472        0.4375218646        2.2011216020
 O       -10.3438214632        1.2733578907        2.5695388633
 C        -9.7169478586       -1.0311311221        2.2962331278
 C       -11.0976227169       -1.5941664561        1.9789457587
 C       -11.9824429736       -1.7666102744        3.2344126019
 O       -11.4735868174       -2.1205083210        4.2745121998
 C       -13.5398021098       -1.5009938226        3.1122230872
 C       -13.6065154338       -0.0400957608        3.6998921025
 O       -13.5500314057        0.9150230964        2.9416890462
 C       -13.8607575406        0.1538599984        5.2239264637
 C       -14.1882024315       -1.5557396664        1.7170688472
 C       -14.1832563082       -2.5187549296        4.0784099079
 C        -6.8774812057        0.1339605095        2.0003911080
 C        -7.9394952925        2.4585616793        2.2061577475
 C       -11.5470136021        0.6471039590       -2.4763898341
 C       -11.5382147839        2.9618861002       -3.6210536731
 C       -12.9036151633        6.9411513163        2.2030747044
 C       -14.6934892038        7.3469435779        0.5097134357
 C       -10.0000012539        8.8353614458       -4.1491735026
 C        -9.6855388378        6.3530364535       -4.6384498740
 C        -2.7250771961        5.0907270067       -0.7572311027
 C        -4.9779025249        5.5825457018        0.2226347276
 H        -2.3635735087        6.8407560863        1.5486698575
 H        -3.9022273596        7.5205690734        1.8369122923
 H        -2.4701302054        8.4887227579        1.4752220807
 H        -5.2123666869        8.0986628323       -2.9104090482
 H        -6.0553825716        7.4944064498       -1.5332162591
 H        -7.2260050675        5.7959620841       -2.9731790964
 H        -6.3358285707        6.4402620650       -4.3412584103
 H       -10.5905580020        9.0648018743       -1.8023397866
 H        -9.1583226381        8.6663375326       -0.8971323478
 H       -11.1641159366        8.4985491107        0.8115754325
 H       -10.5745993002        6.9299327903        0.5618147492
 H       -15.1917079418        5.2999290819       -0.9137894626
 H       -15.1739410957        3.6594976212       -0.2278247937
 H       -12.7044002971        4.8186331524       -1.7310182934
 H       -14.0968183618        4.2413648373       -2.6579728437
 H        -8.7823067276        3.3029393849       -2.4390717502
 H        -8.9617112108        1.5341357301       -2.6390664711
 H        -8.0740763449        3.2840558557       -0.1907056463
 H        -7.0609481964        2.2242359686       -1.1102932918
 H        -9.2523999163       -1.2761730993        3.2970261073
 H        -9.0146776809       -1.4984087608        1.6121299848
 H       -10.8935289167       -2.5499144328        1.4669825289
 H       -11.6293828099       -0.9261389212        1.2998764245
 H       -14.9201247483       -0.0450267375        5.2191725562
 H       -13.5674810866        1.1101416338        5.6453343049
 H       -13.2375058390       -0.5573365262        5.7636875924
 H       -14.1958985884       -2.6128093459        1.3702752840
 H       -13.7819678463       -0.9480763157        0.8831763756
 H       -15.2815659409       -1.3618614597        1.8269363840
 H       -15.1831040997       -2.2210378606        4.3625763621
 H       -13.5788823500       -2.7008583763        4.9461346303
 H       -14.1355518540       -3.5283907606        3.6819407014
 H        -6.8971704571       -0.3527602862        2.9497396258
 H        -5.9552288893        0.5638387914        1.7382204292
 H        -7.0114729041       -0.6911919955        1.2665427158
 H        -8.7993462729        3.0413159506        1.8731095652
 H        -7.0377479799        2.9903590114        1.7925044012
 H        -7.9122453820        2.4777195426        3.2811658327
 H       -10.5232744384        0.2372862318       -2.7394202787
 H       -12.1965690393        0.3434336430       -3.2524712361
 H       -11.8747189770        0.1021912429       -1.6199420315
 H       -12.1396711470        3.9239556197       -3.6469750085
 H       -11.9775134421        2.3347274385       -4.4261259434
 H       -10.5691501942        3.2058064102       -3.9316897062
 H       -13.6756632256        6.7560136526        2.9171060031
 H       -12.5131185485        7.9288370507        2.2911653126
 H       -12.0762326315        6.3493164316        2.4246116867
 H       -15.4792516971        6.8349441988        1.1609672649
 H       -14.9878155739        7.3430330099       -0.5118975975
 H       -14.5526146819        8.3642597749        0.8687184903
 H        -9.9974708209        8.8878766052       -5.1833771449
 H        -9.4357998711        9.6581707808       -3.7213998273
 H       -11.0293088961        8.8522982483       -3.9446642314
 H       -10.7711779877        6.1323090926       -4.5350770444
 H        -9.1792593215        5.4255900738       -4.3133627623
 H        -9.4631024375        6.4315328896       -5.6747993592
 H        -2.3456886434        4.9061645668        0.2706021571
 H        -1.9060818813        5.5106570947       -1.3174381756
 H        -3.0996906112        4.1788078830       -1.2152194661
 H        -5.6850462914        4.8503408936       -0.1345603387
 H        -5.4658194019        6.4325014070        0.6495654016
 H        -4.5118749215        5.0172856669        1.0821548197
 Na      -12.2815814799        2.1360355999        1.5638309356
