117

 C        -2.9295976164        7.5266470423        1.1711480940
 C        -3.4215065524        7.5031754894       -0.2451518453
 O        -3.3782804328        8.5292385193       -0.8911974952
 C        -3.8946495259        6.0556570903       -0.7492770517
 C        -4.4701436110        6.1602610883       -2.2263287779
 O        -3.9879181702        5.4637749573       -3.0862211860
 C        -5.5977450551        7.1681713600       -2.3671874557
 C        -6.7923685069        6.6976879815       -3.3001936030
 C        -7.7438250245        7.8253286050       -3.6115349776
 O        -7.3258735652        8.9572377278       -3.5816917317
 C        -9.3082500229        7.5602774055       -3.6837113252
 C        -9.7720749295        7.1861070753       -2.2024643995
 O        -9.8004996792        6.0416440253       -1.7956451983
 C       -10.2489159953        8.3032201816       -1.2222892329
 C       -10.8817752222        7.7207691850        0.0040031677
 C       -12.2741788581        7.0972774974       -0.3613769715
 O       -12.5285028151        6.9681327132       -1.5022018677
 C       -13.3759821094        6.6388929860        0.7746511218
 C       -13.6232684689        5.1473687729        0.5568599860
 O       -13.0906359547        4.3270295102        1.3246022543
 C       -14.4312243451        4.5504130365       -0.5954229158
 C       -13.5455006454        3.9431731289       -1.7188221878
 C       -13.0020253296        2.5433469431       -1.4948298531
 O       -13.4325282362        1.7524467679       -0.6814418108
 C       -11.7463705967        2.2262526313       -2.3106291115
 C       -10.4035684042        2.4533491937       -1.3202443738
 O       -10.5035419472        2.5285493174       -0.1155482497
 C        -8.9572558676        2.4021331119       -1.9164643053
 C        -7.9111075768        2.3753436978       -0.8352391476
 C        -8.2379660568        1.0995926600        0.0645815582
 O        -8.5750761649        0.0398289285       -0.4891019969
 C        -8.2334565905        1.0732916499        1.6438907930
 C        -9.5139111389        0.4122573810        2.2000967793
 O       -10.4451525680        1.1340157440        2.5783384691
 C        -9.6175080871       -1.1193673090        2.2238845066
 C       -11.0827342373       -1.5362462749        1.9885720292
 C       -11.9053965563       -1.6931287121        3.2814191829
 O       -11.4313986022       -2.0531698031        4.3312054328
 C       -13.5163850059       -1.4336799003        3.2128821891
 C       -13.7463034373        0.0178244198        3.7041777126
 O       -13.5817168339        0.9632351605        2.9386077794
 C       -13.8609466088        0.2028596985        5.2122968881
 C       -14.1185021856       -1.5315283024        1.8613686004
 C       -14.2370759950       -2.5088823917        4.0957723000
 C        -7.1239332039        0.0962747020        2.1866359508
 C        -7.9913954257        2.4590575892        2.3314237153
 C       -11.7180790569        0.6879587469       -2.5011524484
 C       -11.4172419609        2.9811207503       -3.6409781600
 C       -12.9473271408        6.9245453330        2.2184659610
 C       -14.7089066202        7.3611323132        0.5539032732
 C        -9.9706662390        8.8524508449       -4.2164621822
 C        -9.6669031852        6.3799631990       -4.5563052649
 C        -2.7073594850        5.0268273499       -0.7899311452
 C        -4.9732825820        5.4696622944        0.1485116135
 H        -2.0830779612        6.8713096763        1.4961385738
 H        -3.7556368129        7.3601921354        1.8364389796
 H        -2.5260208883        8.5166491973        1.4006798368
 H        -5.1678895146        8.1119146489       -2.7021739931
 H        -6.0362666211        7.3831737500       -1.4353945393
 H        -7.3934488796        5.9394595440       -2.8441184155
 H        -6.3755209350        6.2247630643       -4.1981437751
 H       -10.9518193981        8.9645275663       -1.7171915068
 H        -9.3365840239        8.8830791928       -0.9550693648
 H       -11.0194125552        8.5560330161        0.7569980053
 H       -10.4342321786        6.9515191751        0.5449042267
 H       -15.1742543450        5.2245105724       -1.1015333365
 H       -15.0535372565        3.7201888686       -0.1956730738
 H       -12.6841207187        4.5806302885       -1.8977919049
 H       -14.1233461688        3.9853066724       -2.6958906922
 H        -8.6673656106        3.2331690031       -2.5743072409
 H        -8.9177863148        1.4516995988       -2.5441859261
 H        -7.8568947927        3.3585024073       -0.3177024564
 H        -6.9513016933        2.2532866960       -1.2936016019
 H        -9.3303421248       -1.4196572170        3.2551670036
 H        -8.9214191302       -1.6569948358        1.6166068944
 H       -10.9946226454       -2.4840829843        1.5397359303
 H       -11.6631754120       -0.8426346663        1.3854182712
 H       -14.8524498097        0.0108432178        5.4466927997
 H       -13.5485380802        1.1807803678        5.5296405556
 H       -13.1235854267       -0.4801772262        5.6040587497
 H       -14.0730214708       -2.5281748443        1.3210247234
 H       -13.7305314488       -0.7260470500        1.1618932551
 H       -15.1500937028       -1.3086889160        1.9529328220
 H       -15.2858546081       -2.3190159700        4.2398760103
 H       -13.7656776688       -2.8280522237        5.0388580146
 H       -14.0556675791       -3.4595761449        3.5398916038
 H        -7.3668704701       -0.2543898064        3.1602556714
 H        -6.2372758685        0.6940889585        2.1636498825
 H        -6.8639400216       -0.8756924484        1.5923078144
 H        -8.8068228489        3.1611112126        2.0880035226
 H        -7.1286503006        2.9194458382        1.8941354844
 H        -7.8820266760        2.4054011995        3.4184208298
 H       -10.7534722550        0.2688951264       -2.8661562483
 H       -12.5079356141        0.3522825124       -3.2213641947
 H       -11.9178678917        0.1819677327       -1.5785437908
 H       -11.5934688930        4.0742234600       -3.5226228056
 H       -12.1769667507        2.6713711973       -4.4398185880
 H       -10.4239285983        2.7623132357       -4.1134649692
 H       -13.6521587398        6.6092430082        2.9337944054
 H       -12.7016480344        8.0022417574        2.2728641699
 H       -11.9944406432        6.4691739395        2.4702480070
 H       -15.4602885600        6.7503150335        1.0502602685
 H       -14.9269013066        7.3857730795       -0.5546211539
 H       -14.6747555017        8.4044534843        0.9739180913
 H        -9.6916515606        9.0652454634       -5.2543418913
 H        -9.6232382783        9.6226571473       -3.5632137241
 H       -10.9839369733        8.7729335722       -4.2866811927
 H       -10.6889667028        6.0566237130       -4.4210865781
 H        -8.9930837674        5.5234882425       -4.4594519238
 H        -9.5522567093        6.6366105904       -5.6155522976
 H        -2.2687491842        4.8343040413        0.2289533316
 H        -1.9317772484        5.4891210563       -1.3906714246
 H        -3.0823991754        4.0681165041       -1.2311040558
 H        -5.3988602854        4.6017392983       -0.3832824124
 H        -5.7653052427        6.2159966479        0.3695946163
 H        -4.6763945889        5.0195417011        1.0510290033
 Na      -12.2128115678        2.2622563025        1.5644024031
