117

 C        -2.7530641253        7.3762193169        1.2291670203
 C        -3.3896232226        7.2972110223       -0.1264904508
 O        -3.4647605341        8.3170355945       -0.7921360471
 C        -3.8543329200        5.9510947403       -0.7497772717
 C        -4.5491970363        6.1011906445       -2.1923744450
 O        -4.3925816540        5.2829859684       -3.0537032536
 C        -5.6284517453        7.2535159137       -2.3651667793
 C        -6.8741011487        6.7145800176       -3.1102243084
 C        -7.7796628649        7.8108657402       -3.7193071486
 O        -7.2655562335        8.7409058244       -4.2264172144
 C        -9.3444079011        7.6402010271       -3.6641085239
 C        -9.8929220888        7.2511946320       -2.2367748542
 O        -9.9628204083        6.0855587434       -1.8975887630
 C       -10.3432888748        8.3272924640       -1.2537029850
 C       -11.0428169467        7.7597330173        0.0107770721
 C       -12.4030284511        7.1506615602       -0.3559632950
 O       -12.6594432926        6.9247744535       -1.5482547367
 C       -13.4568006750        6.7163477196        0.7576493489
 C       -13.4760063924        5.1972153403        0.5296666734
 O       -12.7787065337        4.4875862629        1.2001112957
 C       -14.2729372892        4.6373772106       -0.6516350383
 C       -13.5549639402        3.8965391147       -1.8285137302
 C       -12.8411237060        2.5788268020       -1.4567552869
 O       -13.2680178107        1.9075043227       -0.5152055976
 C       -11.6164317401        2.0844626056       -2.2484784208
 C       -10.3006976134        2.2264227886       -1.2603658223
 O       -10.4672639418        2.4933594317       -0.0920382966
 C        -8.9006858120        2.4264621998       -1.8076165704
 C        -7.8769693803        2.2656566343       -0.6367999079
 C        -8.1605651515        0.9564472450        0.1785987300
 O        -8.2111818892       -0.1205625749       -0.3222549424
 C        -8.2602851174        1.0209360889        1.8415235740
 C        -9.7030583756        0.3419675247        2.1406483375
 O       -10.5790790491        1.0620690103        2.5357895654
 C        -9.7808768478       -1.1868876519        2.0596312716
 C       -11.2181736397       -1.6638774011        1.8672569544
 C       -11.9433291783       -1.6280718782        3.3203456341
 O       -11.3693590865       -1.7535965137        4.3776909938
 C       -13.4610407671       -1.3032294395        3.2513229996
 C       -13.7365242391        0.1585244010        3.8251994469
 O       -13.6303097932        1.0504923743        3.0039165995
 C       -13.8638302503        0.3743566470        5.3183333741
 C       -13.9929003775       -1.4828035371        1.8370777839
 C       -14.1784283218       -2.3548380295        4.2006743331
 C        -7.0370822758        0.2578380266        2.2997383774
 C        -8.2814911248        2.4305905631        2.3198323035
 C       -11.8354753639        0.5579004832       -2.6785712263
 C       -11.4127759021        2.9222571980       -3.5842186694
 C       -12.9024888333        6.9548739418        2.1829581434
 C       -14.6549843771        7.5729239859        0.4144415546
 C       -10.0243241144        8.9055441846       -4.2044853609
 C        -9.5092460936        6.4176930674       -4.5620239625
 C        -2.5833051271        5.1133215131       -0.8427170488
 C        -4.9414723157        5.3311474515        0.1665106674
 H        -1.7829937909        6.9629805407        1.1584866415
 H        -3.2840603480        6.8607989730        2.0812209136
 H        -2.5091401040        8.3945697938        1.5979116204
 H        -5.1705039443        8.1527609664       -2.7877648795
 H        -6.0594043104        7.5389905380       -1.3658060290
 H        -7.4645853547        6.0502711467       -2.4475259294
 H        -6.4709323680        6.0463181345       -3.8667604865
 H       -11.0325143327        8.9387995118       -1.8887725055
 H        -9.4486599534        8.8647934076       -0.9450626957
 H       -11.1469923324        8.4085675129        0.8538980105
 H       -10.4954319402        6.8102963510        0.3940657496
 H       -14.8321757320        5.4045354912       -1.1089342257
 H       -14.9996702313        3.9503197163       -0.2899183632
 H       -12.8720674635        4.5730946418       -2.3653612766
 H       -14.2914698814        3.5929864285       -2.5165443778
 H        -8.8773268079        3.4470264163       -2.2030987393
 H        -8.6441702979        1.7819456519       -2.6174658120
 H        -7.9349677592        3.0883260152        0.0489122821
 H        -6.8383052268        2.2719588684       -1.0491417027
 H        -9.2089192886       -1.7304008064        2.7937220316
 H        -9.2075868404       -1.3730448471        1.1231598324
 H       -11.1376136093       -2.7224379392        1.4226167404
 H       -11.7386323108       -0.8740142538        1.2914868854
 H       -14.7918902329       -0.0927101086        5.7411965922
 H       -13.9869851061        1.4714770475        5.4032083598
 H       -12.8667047356        0.0773435227        5.6781654172
 H       -13.4345385866       -2.1922697784        1.3178255193
 H       -13.9306601854       -0.5710956233        1.3007995365
 H       -15.0807929543       -1.7183874016        1.7091050242
 H       -15.2479246753       -2.0488962282        4.2245747836
 H       -13.8394003278       -2.2292828312        5.2258641311
 H       -14.0773793755       -3.4239351697        4.0062233939
 H        -7.1076414598        0.0972701998        3.4111794498
 H        -6.1064607262        0.7669356577        2.0073583683
 H        -7.0613811619       -0.7386832277        1.9135590890
 H        -9.0142640156        3.1395324069        2.0109642287
 H        -7.3172638851        2.8996500331        2.0076553458
 H        -8.2601890376        2.3647613505        3.3955798623
 H       -11.0776247872        0.1125166344       -3.3338077278
 H       -12.7673153731        0.4112290216       -3.1812564391
 H       -11.7969557018       -0.1011814366       -1.7853843176
 H       -10.6231888963        3.6843024372       -3.5057216979
 H       -12.2135261701        3.5146207576       -3.9585104655
 H       -11.1814820002        2.2410617918       -4.3428368335
 H       -13.5457774209        6.3015658956        2.8725679406
 H       -12.9103054560        8.0120550626        2.4768496210
 H       -11.8697724339        6.5921781755        2.3810150973
 H       -15.5767409722        7.2214879198        0.9324771482
 H       -14.7939698288        7.6099153816       -0.6221114120
 H       -14.3377904664        8.5410439263        0.7060304480
 H        -9.4481291090        9.2213834216       -5.0760116056
 H       -10.1835544079        9.7705406738       -3.4788152997
 H       -10.9656577380        8.5620638524       -4.7420106438
 H       -10.5613072970        6.1160283100       -4.7040878124
 H        -8.8586020070        5.6284313087       -4.1905799509
 H        -9.0900581548        6.5719108311       -5.5412626746
 H        -2.1724663577        4.9539628369        0.1446648164
 H        -1.8467975064        5.5900142832       -1.5063069968
 H        -2.8897382789        4.1338538506       -1.1744962073
 H        -4.9840858821        4.2601650732        0.1708940515
 H        -5.9073399289        5.7305634793       -0.0109360200
 H        -4.6923897296        5.5472750106        1.2501382785
 Na      -12.2695560758        2.2736786682        1.4557331678
