117

 C        -2.2442417468        6.9090738544        0.9341271408
 C        -3.2849139920        7.1783119001       -0.1745535949
 O        -3.7431333294        8.2775746235       -0.4332840322
 C        -3.8643296950        5.7813359541       -0.8264072294
 C        -5.0129683338        5.7661142021       -1.8801020231
 O        -5.2303678776        4.6552837804       -2.4115317250
 C        -5.7082691362        7.0477826741       -2.2709531733
 C        -7.1915877525        6.7750667262       -2.5337966433
 C        -7.7587181494        7.5936966866       -3.7711670950
 O        -7.0540287421        8.2260185650       -4.5063663599
 C        -9.3629205745        7.4830882135       -3.9815195181
 C       -10.0810547148        7.2371405070       -2.6427420344
 O       -10.3465103342        6.0993167676       -2.3021327130
 C       -10.4312076907        8.4637210768       -1.7546887622
 C       -11.0004153965        7.8864126692       -0.3887546899
 C       -12.5066069907        7.4459798099       -0.4934782412
 O       -13.0050274806        7.5762603554       -1.6102944007
 C       -13.3206369865        6.8653624006        0.6876807612
 C       -13.2856108532        5.2927729211        0.4953294737
 O       -12.7045154742        4.5987135859        1.3505631535
 C       -13.9764287920        4.6868077356       -0.7114502885
 C       -13.0020534013        3.9934598402       -1.8065489649
 C       -12.6526117847        2.4761217331       -1.5823356712
 O       -13.2273279873        1.6640038199       -0.8889169918
 C       -11.3962244604        1.9680010093       -2.2992417964
 C       -10.2988450240        2.0842825664       -1.2090758488
 O       -10.5064043847        2.1035614171       -0.0057762122
 C        -8.8068707834        2.1445203399       -1.6747172843
 C        -7.8213751870        1.9837649606       -0.3991208322
 C        -7.9763741016        0.7947615169        0.4931469277
 O        -7.6531765734       -0.2756582039        0.0990583590
 C        -8.4072697096        0.9746858819        2.0090904742
 C        -9.7961858852        0.4075753321        2.0995667667
 O       -10.8197381146        1.0250318314        2.2859450284
 C        -9.8582124065       -1.1203380386        1.8885490755
 C       -11.2760924206       -1.6410515713        2.1029357296
 C       -11.8946815382       -1.1158774614        3.3822448008
 O       -11.2751786870       -1.0276292415        4.4136004668
 C       -13.4705028522       -0.8872032394        3.3844061915
 C       -13.6174825895        0.5967221365        3.9509459850
 O       -13.8270083974        1.5174676813        3.2003422689
 C       -13.5615971948        0.7198430825        5.5079721631
 C       -14.1195420186       -1.0854255028        1.9693444163
 C       -14.0393704009       -2.0104346325        4.3785564205
 C        -7.3969074485        0.1927165734        2.8872587906
 C        -8.4371885863        2.4648361327        2.5568354676
 C       -11.6536007413        0.4483126114       -2.8104984605
 C       -10.9713685614        2.8200882776       -3.5487059204
 C       -12.6505719454        7.2852823849        2.0086764171
 C       -14.7777082642        7.3921832310        0.4571111466
 C        -9.7776093210        8.8521943214       -4.6066867251
 C        -9.6779446399        6.3381309131       -4.9912639639
 C        -2.7098200479        4.9454958041       -1.3886931734
 C        -4.5317997738        5.1035771724        0.4224983140
 H        -1.2201849259        7.3116355630        0.7157987914
 H        -2.0195474885        5.8737312299        1.0360551238
 H        -2.4994456313        7.2439934706        1.8949000121
 H        -5.3423677932        7.3588829262       -3.2941126573
 H        -5.5882373379        7.9265718717       -1.6100983700
 H        -7.8369707503        6.9978681129       -1.6621078667
 H        -7.3450365590        5.6825457490       -2.7705252501
 H       -11.1788719587        9.0424148026       -2.2485106111
 H        -9.4371798357        8.9152379412       -1.5638970092
 H       -10.9937708370        8.7497644231        0.3520105452
 H       -10.4474004047        7.0371936739       -0.0437774801
 H       -14.6044360094        5.3917647921       -1.2634161371
 H       -14.5956712620        3.8755724656       -0.3163517672
 H       -12.0520796968        4.4705224878       -1.7603586513
 H       -13.4299363822        4.1907070527       -2.8222942396
 H        -8.5788140836        3.1286510449       -2.1138424019
 H        -8.6161047631        1.3715815753       -2.4135721358
 H        -7.8662769886        2.9497154381        0.1114422670
 H        -6.7957993603        1.8610277519       -0.7858955541
 H        -9.0710094103       -1.7048444261        2.4301356629
 H        -9.6383154907       -1.4176627103        0.8373024970
 H       -11.2136921148       -2.7220826564        2.2125465151
 H       -11.9730338944       -1.3064225109        1.3004534518
 H       -14.4706327805        0.2256090949        5.9522498816
 H       -13.7575667932        1.7872508076        5.6177371766
 H       -12.6592204799        0.2004803347        5.8445348474
 H       -13.7357727703       -1.8118709897        1.2806926734
 H       -14.0001247113       -0.1293342604        1.4323678278
 H       -15.1761256640       -1.3244468850        1.9633810477
 H       -15.1196630112       -1.9452854967        4.4607433433
 H       -13.6424258274       -1.9214152284        5.3828834932
 H       -13.8994534045       -2.9426401463        3.8755473617
 H        -7.7637580087       -0.1225925988        3.8653564287
 H        -6.5715415853        0.8996774260        3.1453624594
 H        -6.9957295090       -0.5497769565        2.3585518587
 H        -9.1056218891        3.0788136629        1.9398306718
 H        -7.5084482325        2.9804903667        2.6204204883
 H        -8.8652103775        2.5709476857        3.5920392086
 H       -10.9176628761        0.1454395791       -3.4551133222
 H       -12.5741536981        0.4638989288       -3.4213669622
 H       -11.7914046158       -0.3072400804       -2.0139353065
 H       -10.4214866070        3.6721118883       -3.2312858968
 H       -11.8458038655        3.1920669754       -3.9619338093
 H       -10.4437763645        2.3197139052       -4.3680438696
 H       -13.0683496964        6.7630481246        2.8741813349
 H       -12.9588850769        8.2849947046        2.2590676657
 H       -11.5416998201        7.1311950403        2.0426968046
 H       -15.4611114454        6.6551677928        0.6932772187
 H       -14.7899769810        7.6249044140       -0.6043963697
 H       -14.9680404032        8.2454473272        1.0709641102
 H        -8.9210682905        9.1622914624       -5.1939253916
 H        -9.8219257394        9.5797270292       -3.8490818123
 H       -10.8128972588        8.9671823763       -5.0470890988
 H       -10.7288834457        6.0933131055       -4.8895733219
 H        -9.1985332588        5.3996330923       -4.6959491225
 H        -9.5040160653        6.6190906299       -6.0686406535
 H        -1.9488985933        4.8380939258       -0.6449778597
 H        -2.2822880176        5.3642871731       -2.2992473655
 H        -3.0570251656        3.9536200908       -1.6490120301
 H        -5.2577698029        4.3174549493        0.1768145251
 H        -5.2174015176        5.8158377050        0.9403152434
 H        -3.8778467558        4.7802088476        1.1559029097
 Na      -12.6033236049        2.2137594101        1.3202840881
