117

 C        -2.1562541928        7.0478461149        0.8298750862
 C        -3.2644945794        7.0409996451       -0.1625301615
 O        -3.7634815247        8.1134359622       -0.4551059877
 C        -3.8286505067        5.6831012441       -0.7275805650
 C        -5.0364359506        5.6995161561       -1.8667885926
 O        -5.4268602595        4.6633108908       -2.3139410855
 C        -5.7315257289        6.9879192590       -2.2894756913
 C        -7.2562672634        6.7395280304       -2.6023729107
 C        -7.7680545114        7.5615147089       -3.7464975644
 O        -7.0377869631        8.1501798752       -4.4922549553
 C        -9.3457876354        7.5102896696       -4.0270714927
 C       -10.1834877426        7.2209407063       -2.7233159372
 O       -10.5125477988        6.0716522865       -2.4791283749
 C       -10.5003979311        8.3762275934       -1.7346004298
 C       -11.0015370548        7.9527304578       -0.3238170913
 C       -12.4929583936        7.5065933503       -0.5157453606
 O       -13.0655321754        7.6245324574       -1.6067182768
 C       -13.3255290203        6.8813380454        0.6223216874
 C       -13.2797142095        5.3118050430        0.4558155814
 O       -12.7115543577        4.6866105812        1.3215829722
 C       -13.9133512254        4.6322377245       -0.7783506803
 C       -12.8625729986        3.9337991199       -1.7317878016
 C       -12.5614000259        2.4682429366       -1.6566341102
 O       -13.1622791184        1.7337745961       -0.8521998455
 C       -11.3721474851        1.9941340968       -2.4228951465
 C       -10.2153245546        2.0066654376       -1.2338673778
 O       -10.6163347968        2.1546320525       -0.0948190012
 C        -8.7817634488        2.0034183082       -1.6385874120
 C        -7.7829478541        2.0932133005       -0.4892098127
 C        -7.8816120225        0.8837657640        0.4983584586
 O        -7.6819493088       -0.2725317405        0.2196392802
 C        -8.3620775616        1.0500752798        2.0683831420
 C        -9.8115743686        0.4149697944        2.0664821123
 O       -10.8456934086        1.0187483176        2.2969980359
 C        -9.8616451364       -1.1191436377        1.9451185342
 C       -11.2794065031       -1.7144332922        2.0535675932
 C       -11.9467384826       -1.1320402610        3.4416973916
 O       -11.3367715239       -0.9984324705        4.4920479493
 C       -13.5145840574       -0.8116404157        3.4019930387
 C       -13.7186518921        0.6010400743        3.9826739834
 O       -13.6605946170        1.5612344002        3.2278411627
 C       -13.5315380786        0.8237696963        5.4458774349
 C       -14.1227292781       -0.9564761579        2.0541634896
 C       -14.1159718192       -1.8844652995        4.3940132753
 C        -7.4764055702        0.1844613475        2.9443513003
 C        -8.3561287393        2.5135963370        2.6262859215
 C       -11.5221866874        0.4965496262       -2.8102371690
 C       -10.9092355082        2.8057060225       -3.6625182594
 C       -12.6619432054        7.1902692029        1.9959788672
 C       -14.7855734692        7.3817204755        0.6494256782
 C        -9.7433594462        8.8706501566       -4.7255921400
 C        -9.5654562092        6.3124114280       -5.0137220189
 C        -2.7031709294        4.8888755755       -1.4364728383
 C        -4.4317461295        4.9990670642        0.5326633244
 H        -1.3500150481        7.5689622570        0.4769956242
 H        -1.7028831809        6.0959942738        1.0755691188
 H        -2.4441834700        7.5066573781        1.7568396748
 H        -5.2890329459        7.3133184299       -3.2239341547
 H        -5.6891102211        7.8782638573       -1.6181715490
 H        -7.8404701120        7.1269696270       -1.7107537247
 H        -7.5615686706        5.6748364780       -2.7430635760
 H       -11.3370424355        8.8609565430       -2.2524703995
 H        -9.5815033539        8.9408047662       -1.6883618371
 H       -11.0516266079        8.8012767305        0.3075107514
 H       -10.4288983381        7.0986375232        0.1178580614
 H       -14.4302271660        5.3274477713       -1.4553455302
 H       -14.6342772853        3.7964364957       -0.4843762568
 H       -11.8638980819        4.4545724128       -1.6783808718
 H       -13.2644722782        4.1476023485       -2.7372605478
 H        -8.6766026414        2.9467530288       -2.3088379778
 H        -8.5504658691        1.1275148107       -2.2255095137
 H        -7.9202116938        3.0091066929        0.0311838359
 H        -6.7872694769        2.1313069174       -1.0128563690
 H        -9.1470731041       -1.6340703566        2.5565968723
 H        -9.5811697452       -1.5050595782        0.9046969873
 H       -11.1327467108       -2.7785121566        2.0651861342
 H       -11.9266757606       -1.4127468925        1.2695955672
 H       -14.2279360246        0.1842017452        6.0445443312
 H       -13.7531230462        1.8767082716        5.5883984244
 H       -12.5338508413        0.4160788602        5.5511368652
 H       -14.0132905820       -1.8307930148        1.4549960806
 H       -13.7920121562       -0.1245816915        1.4168339038
 H       -15.2690869593       -0.9169828280        2.1600573837
 H       -15.2130406719       -1.8255079883        4.5982207149
 H       -13.5853572548       -1.8280602979        5.3292795662
 H       -13.9475513022       -2.8025064070        3.8744474628
 H        -7.9557087269        0.0476006697        3.8697030362
 H        -6.5229248754        0.5715074745        3.1564250753
 H        -7.2962538487       -0.7923079182        2.3996216264
 H        -8.9449993471        3.3030546603        2.1732752250
 H        -7.3134814916        2.8726151581        2.7480747284
 H        -8.7150244704        2.5335064718        3.6659509267
 H       -10.6399815433        0.1630513880       -3.3731894899
 H       -12.3893445750        0.2363487181       -3.3473996872
 H       -11.5929555455       -0.0455602162       -1.8645514942
 H       -10.1077074484        3.5480415659       -3.3443006636
 H       -11.7710632890        3.3522404713       -4.0567232923
 H       -10.5442098406        2.2534482411       -4.4715187031
 H       -13.2369506090        6.7536239071        2.8230565518
 H       -12.8104289463        8.1940524950        2.2182301309
 H       -11.6478975210        6.9125860751        2.0744750199
 H       -15.3581019791        6.6625828399        1.2837534796
 H       -15.1209021446        7.4414349130       -0.3285750385
 H       -14.8352469414        8.3087569489        1.1616799589
 H        -8.8955389219        9.1491690664       -5.2342429301
 H       -10.0264914007        9.6625082863       -4.0456907347
 H       -10.6196191856        8.7868719942       -5.3419994829
 H       -10.6390856775        6.0856961393       -5.0917410302
 H        -9.2064826851        5.4072305238       -4.5131470586
 H        -9.1875373593        6.4722540771       -6.0164153294
 H        -1.8609308931        4.8158451735       -0.7954952029
 H        -2.3684610734        5.4124793007       -2.3365724656
 H        -3.0085746120        3.9213187424       -1.7457453228
 H        -4.7931862799        4.0286767240        0.2276573010
 H        -5.3251498932        5.4440083301        0.9342387181
 H        -3.7455811631        4.8850219095        1.4084278301
 Na      -12.7313509923        2.2258109529        1.3505152135
