117

 C        -8.4024596449       -0.8533308347       11.2825539685
 C        -7.5611872102        0.1672858530       10.3604144679
 O        -7.6013816208        1.3274859804       10.6395939196
 C        -6.4885843849       -0.2311956434        9.2574437822
 C        -7.2378283422       -0.1448550129        7.9524732130
 O        -8.2712583441       -0.7933039487        7.9167399453
 C        -6.7609047022        0.6355887022        6.6767602467
 C        -7.5451970443        0.6492117902        5.3707532217
 C        -6.5705969002        0.7786516539        4.2165758008
 O        -5.4051366800        1.0485672073        4.3604522806
 C        -7.3313069903        0.9209017503        2.8515198499
 C        -8.2173145506        2.2624434140        2.9085552728
 O        -9.2146201855        2.4204638169        3.6240224636
 C        -7.6605114967        3.4314359254        2.1633748395
 C        -8.4447795086        4.8295424587        2.3669178022
 C        -9.3559208708        5.1344036589        1.1351501762
 O        -9.0040538011        4.8924492438       -0.0321481230
 C       -10.6976782346        5.8655885498        1.3692995316
 C       -11.8191032353        5.2652055545        0.3160528562
 O       -11.9412332937        5.7218279811       -0.7904084445
 C       -12.7693951351        4.1061634422        0.7444048393
 C       -13.6813705844        3.5754259370       -0.3689243046
 C       -13.3465884550        2.1486795057       -0.6934340472
 O       -13.0902066731        1.4442440974        0.2765736588
 C       -13.2920219986        1.5687310706       -2.2035580761
 C       -12.1893875813        2.3323048339       -3.0719095082
 O       -11.2482369362        2.8755048860       -2.4952877757
 C       -12.4758098249        2.4331658065       -4.5361828912
 C       -11.3358326319        2.8540819971       -5.5183039919
 C       -11.8816303298        3.9377843790       -6.5500006359
 O       -13.0925424331        4.0613216730       -6.6523763577
 C       -10.8268413617        4.6013979453       -7.4330965545
 C       -10.5603472280        6.1192075482       -6.9486927415
 O        -9.4268962699        6.4910326145       -6.8517222224
 C       -11.7501408644        7.0120709385       -6.5428683773
 C       -11.3219085259        8.2909859318       -5.8671385612
 C       -10.6634941716        7.9193310675       -4.5297488774
 O       -11.1571442758        7.0070264105       -3.8391561031
 C        -9.2415160244        8.4571081359       -4.1406597377
 C        -8.2749983788        7.1918297575       -4.1676677039
 O        -8.5417955192        6.1738666315       -3.5506861664
 C        -6.8588445988        7.4011462978       -4.7918150702
 C        -8.8043009051        9.5613726136       -5.1195392567
 C        -9.3803855926        8.8975194234       -2.6446842406
 C        -9.3255398689        4.0729594483       -7.5663095878
 C       -11.4792447662        4.7785920706       -8.7839323692
 C       -13.0376770206        0.0034219669       -2.1184705089
 C       -14.7370709083        1.8117191357       -2.8498381997
 C       -11.2463078965        5.4798335444        2.8419965812
 C       -10.5424968098        7.5053780199        1.2072841494
 C        -6.2292247700        1.0394128237        1.7471301453
 C        -8.2067421771       -0.3124628498        2.5422049161
 C        -5.3448331858        0.8319490454        9.1321320849
 C        -5.9799482480       -1.6212794910        9.4997505901
 H        -9.0976903086       -1.4194935752       10.7639619654
 H        -8.9316980864       -0.1450921888       11.9713172717
 H        -7.7117486771       -1.5986470778       11.6064082178
 H        -5.7496359605        0.1976923679        6.4156604353
 H        -6.6463796797        1.7062265139        7.0655528417
 H        -8.2721230860        1.5152437304        5.2970451362
 H        -8.0952182235       -0.2851844437        5.3383493749
 H        -7.5891383044        3.2707830771        1.0516465572
 H        -6.6276482196        3.6145433471        2.4737229657
 H        -7.6804661757        5.6932293011        2.4711857385
 H        -9.0369980741        4.9099128707        3.2461934598
 H       -13.2932328582        4.4608256541        1.6153202006
 H       -12.0587936563        3.3119487795        1.0811451892
 H       -13.6693368359        4.1961966341       -1.2497640973
 H       -14.6892920424        3.6611633233       -0.1504534549
 H       -13.2141136658        3.2255291379       -4.7745077112
 H       -12.9076994056        1.5254344401       -4.9054947990
 H       -11.0519026574        1.9862211237       -6.0948016116
 H       -10.4736676542        3.3549079104       -5.0652598790
 H       -12.3444921694        6.3524704152       -5.8923531056
 H       -12.3211903718        7.2576645938       -7.4801715551
 H       -12.2335249358        8.9390723544       -5.5662603402
 H       -10.4695451424        8.7682444911       -6.3815958515
 H        -6.8275998661        7.8969318392       -5.7601698956
 H        -6.4880581204        6.3966564314       -5.0297010133
 H        -6.1316380890        7.7695980223       -4.0501243267
 H        -9.5765622286       10.3481298566       -5.2299916657
 H        -8.4818127046        9.1063515294       -6.0940952253
 H        -7.9239261731       10.0571679042       -4.7213656379
 H        -9.8147981632        8.1460071247       -2.0313548264
 H        -9.9960964814        9.8058502563       -2.6229897962
 H        -8.4550404929        9.1138441552       -2.2104867219
 H        -9.3059308565        3.0529717260       -7.7984612601
 H        -8.7940931621        4.3140025441       -6.6110925904
 H        -8.7473800979        4.7306825206       -8.2791443682
 H       -11.6761136729        3.7953658251       -9.1893099989
 H       -10.8146068829        5.4425702914       -9.3901913679
 H       -12.5536237477        5.0802236025       -8.7256717229
 H       -13.6429363765       -0.4938624791       -1.3845529484
 H       -12.0090377030       -0.2768541245       -2.0467791878
 H       -13.4991095528       -0.3367459864       -3.0189697200
 H       -15.5057167910        1.0153515354       -2.5627907207
 H       -14.7334154944        1.6929946541       -3.9488029223
 H       -15.1425201510        2.8377254044       -2.6837119381
 H       -12.3130602299        5.6985068737        2.9357705745
 H       -10.8046222466        6.1187433291        3.5837373412
 H       -10.9737671291        4.4395494239        2.9281358163
 H        -9.8269171829        7.7569499044        0.4741548273
 H       -10.1267201321        7.8542682433        2.1402773315
 H       -11.4835774240        7.9060657017        0.9438554901
 H        -5.9022337519       -0.0004572742        1.5861420473
 H        -5.3617787558        1.5862753538        2.0576228211
 H        -6.6148713862        1.3822102524        0.7922946416
 H        -9.1506111371       -0.3043440081        3.1296213677
 H        -7.4349891294       -1.1153083588        2.6462219539
 H        -8.4567145495       -0.3246644590        1.4569076949
 H        -5.7120254785        1.8064037796        8.7956549350
 H        -4.5344610624        0.4793922673        8.5164798592
 H        -4.8143784858        0.9567199705       10.1171524546
 H        -6.8038242153       -2.2573241504        9.8066868937
 H        -5.0999532029       -1.6354889419       10.1329755506
 H        -5.3899887792       -1.8595763885        8.5888739978
 Na      -10.2061763446        5.0511323245       -2.3585382331
