117

 C        -2.0619178085        7.0785571459        0.4511725929
 C        -3.3576700675        7.0062328579       -0.2718373970
 O        -3.9362697225        8.0230476246       -0.6318427606
 C        -3.8055446591        5.5229557522       -0.6497580807
 C        -5.1530117814        5.6209743387       -1.5406901009
 O        -5.6634199897        4.5291630390       -1.8578853617
 C        -5.8086345778        6.8637764774       -2.1573762781
 C        -7.2759832804        6.6619909863       -2.5277380533
 C        -7.7742568530        7.5787346221       -3.7001513022
 O        -7.0266180624        8.1305766422       -4.4683964107
 C        -9.3627848851        7.4319042479       -4.1245603002
 C       -10.2806945050        7.2386173882       -2.9264880442
 O       -10.7214818344        6.1396237272       -2.6618133997
 C       -10.4285674491        8.3753435490       -1.8505406574
 C       -11.1336829279        7.8922682726       -0.5681241378
 C       -12.6974458984        7.4649622875       -0.6256617138
 O       -13.3737679639        7.6925560821       -1.5827239908
 C       -13.2910693590        6.7688421738        0.6741817116
 C       -13.3033362444        5.2355892735        0.4861204056
 O       -12.6603380713        4.5132286318        1.2660860607
 C       -13.8583958776        4.6444304342       -0.8212373334
 C       -12.7021799822        4.1254667212       -1.8106716548
 C       -12.4649184457        2.6497374796       -1.7608560010
 O       -13.2107167121        1.9748860768       -1.1088148803
 C       -11.2361725633        1.9862116499       -2.3845275994
 C       -10.1178310735        2.0444525271       -1.3113412652
 O       -10.3343224792        2.2790064512       -0.1354170875
 C        -8.5929795928        1.7420850352       -1.6117828080
 C        -7.7959543586        2.1642129506       -0.2684864889
 C        -7.9061959789        0.8872127161        0.6005617731
 O        -7.6293347455       -0.1790712087        0.1204295621
 C        -8.3350445525        1.0328260419        2.1704470500
 C        -9.8120495580        0.4338789652        2.2940495420
 O       -10.7775046675        1.1593971149        2.3018541977
 C        -9.8814907567       -1.0928968648        2.1899177425
 C       -11.3597454739       -1.6577764723        2.0763818021
 C       -12.0282819577       -1.1855219963        3.4159855847
 O       -11.3980113684       -1.0566964072        4.4279952646
 C       -13.5863750629       -0.6891387509        3.5006129724
 C       -13.6251790199        0.7204853952        4.0472607428
 O       -13.6294400858        1.6923312879        3.3184901828
 C       -13.5200046919        0.9852022251        5.6073910583
 C       -14.3318140923       -0.6600984527        2.1670377749
 C       -14.3074556181       -1.6793149553        4.4510010240
 C        -7.3407515471        0.2395868577        2.9999319735
 C        -8.4693550567        2.5341111059        2.5351443900
 C       -11.3698364946        0.5055795008       -2.7330582544
 C       -10.9152954027        2.7685042044       -3.7574145021
 C       -12.5313894754        7.0887210650        1.9829435626
 C       -14.7369326581        7.2176078945        0.7844082147
 C        -9.7548383395        8.7507672075       -4.8007429326
 C        -9.3705742896        6.2538625741       -5.1122781846
 C        -2.7104275293        4.7988560674       -1.4214289367
 C        -4.2017713833        4.5784187004        0.5287920221
 H        -1.2296322476        7.7029257087       -0.0680432358
 H        -1.5339117025        6.1446777049        0.5835600235
 H        -2.1815519352        7.5049464047        1.4455380087
 H        -5.1745410484        7.2049828664       -2.9873855903
 H        -5.7849351362        7.6265310076       -1.4273223039
 H        -7.8167233977        6.7392431075       -1.6186391320
 H        -7.3765768093        5.6497585209       -2.8906469899
 H       -10.9938490457        9.1804031580       -2.3432114361
 H        -9.3820014838        8.6728712475       -1.6009386974
 H       -11.1219068956        8.7934719555        0.1246455634
 H       -10.5570377609        7.0752562065       -0.1996457957
 H       -14.3595849146        5.4380668063       -1.3912635547
 H       -14.5361809628        3.8347087095       -0.7025724822
 H       -11.7824183390        4.6339202578       -1.5619803111
 H       -12.9427228281        4.4655714045       -2.8309074087
 H        -8.2032055848        2.1087407730       -2.5016258301
 H        -8.4533275748        0.6240357748       -1.5961671663
 H        -8.3183718751        3.0298100693        0.2150379589
 H        -6.8154548369        2.4677171700       -0.5408519739
 H        -9.3735353635       -1.5193877380        3.0796103915
 H        -9.3128743082       -1.4598421447        1.3994864478
 H       -11.4392532460       -2.7643127482        1.9724231592
 H       -12.0313414483       -1.2515608631        1.2642381287
 H       -14.2240140111        0.4061900795        6.1418089190
 H       -13.6348442798        2.0481846973        5.7225515775
 H       -12.5491508389        0.5261936365        5.7946287838
 H       -14.7958802757       -1.6678469074        2.0214461875
 H       -13.6288398945       -0.6631610890        1.3275071986
 H       -15.1760242988       -0.0846461221        2.0331632568
 H       -15.2761928881       -1.2043126939        4.6004541277
 H       -13.8249624640       -1.8939146252        5.4471367759
 H       -14.4525208535       -2.6260185358        3.8508015422
 H        -7.7540871421        0.2464287563        4.0777225177
 H        -6.3448189076        0.8236316152        3.0506811197
 H        -7.0463548655       -0.6833608974        2.6756444210
 H        -9.3496484061        3.0938322605        2.2226584091
 H        -7.5642720388        3.0673758808        2.4159633953
 H        -8.6797082671        2.5915833633        3.6140709625
 H       -10.4042443831        0.0690498342       -2.8964313425
 H       -12.0337074549        0.3967120357       -3.6591244999
 H       -12.0067422415       -0.0173958517       -1.9766552053
 H       -10.8333484544        3.8232259096       -3.6030573783
 H       -11.6247774007        2.4306399131       -4.5406114306
 H        -9.8389358522        2.5146641133       -4.1686741241
 H       -13.1869462886        6.9141732094        2.7909263990
 H       -12.2442330025        8.1450662702        2.1291640318
 H       -11.6154747307        6.4746223222        2.0634588961
 H       -15.1129243754        7.0683221776        1.7634524185
 H       -15.2845169980        6.6536761676       -0.0558978427
 H       -14.7898093241        8.3269840843        0.5714794683
 H        -9.1369811981        8.8866915709       -5.7342985412
 H        -9.7043173846        9.6055568306       -4.1647980205
 H       -10.8475367119        8.6424910026       -5.0973650825
 H       -10.1791948861        6.2659037929       -5.8002373687
 H        -9.3968453776        5.2825889500       -4.6517715629
 H        -8.4976952761        6.4881074723       -5.7288560588
 H        -1.8924675581        4.4161017578       -0.7756316682
 H        -2.2099041275        5.3228460301       -2.2320199034
 H        -3.2374321106        3.9359053261       -1.8897129696
 H        -4.2897187840        3.5114045912        0.2167326185
 H        -5.1605911261        4.8743193903        1.0257723946
 H        -3.5347619888        4.6156713101        1.3450270548
 Na      -12.6739026863        2.2916146224        1.2588823162
