117

 C        -1.9475765116        6.8476433292        0.0606214396
 C        -3.3900260245        6.8515799113       -0.4203179564
 O        -4.0164562242        7.8915085712       -0.4581321338
 C        -3.9566217543        5.4537866490       -0.7444092381
 C        -5.4193707127        5.3952265196       -1.2445750156
 O        -6.0199764623        4.3251844602       -1.1049700217
 C        -5.9925869700        6.5744734882       -2.0666577071
 C        -7.3621489576        6.2471298881       -2.6634410699
 C        -7.7866495367        7.3405652053       -3.6035729737
 O        -7.0212970550        8.2006954031       -3.9418023233
 C        -9.2581796322        7.4653530725       -4.2669314080
 C       -10.3145704523        7.1281486192       -3.1174435304
 O       -10.6594661136        5.9581882382       -2.9155283638
 C       -10.7874069210        8.3038060006       -2.2558116984
 C       -11.1457717045        7.7893006632       -0.8243586312
 C       -12.6943920005        7.4638677709       -0.7330840653
 O       -13.3931864805        7.8030933441       -1.6229053779
 C       -13.1997173140        6.7307506203        0.6157212987
 C       -13.0940466408        5.1861550358        0.3229261966
 O       -12.6542036510        4.4365034382        1.1864467774
 C       -13.8203987529        4.6607461370       -0.9520521093
 C       -12.7361732792        4.1748623226       -1.9340003064
 C       -12.4783646992        2.6567200759       -1.8575958173
 O       -13.2506213493        1.9372419155       -1.2466242808
 C       -11.0877187590        2.0541678871       -2.3866199406
 C       -10.0873192714        2.2017564403       -1.1669031783
 O       -10.4089280427        2.5438829033       -0.0585806844
 C        -8.6034919780        2.1600166026       -1.5471603393
 C        -7.5548267017        1.9121642025       -0.3331988726
 C        -7.8741111723        0.8065821422        0.6973678201
 O        -7.7545399294       -0.3553232639        0.3402037255
 C        -8.3260337064        1.1783134868        2.1702519951
 C        -9.7450826711        0.4469669573        2.3835726191
 O       -10.6880470923        1.2097487903        2.4192152097
 C        -9.9714527943       -1.0399875165        2.3115175905
 C       -11.4638713905       -1.3687847154        2.2935458830
 C       -12.2062079513       -1.0371339727        3.5502050769
 O       -11.7284298279       -1.2905594386        4.6106216857
 C       -13.6850234560       -0.4532223672        3.5383687578
 C       -13.5344204475        1.0440407938        4.0972016452
 O       -13.4161368297        2.0026642705        3.3310777186
 C       -13.4177750398        1.2004068399        5.5973249777
 C       -14.3701470489       -0.4448112389        2.1403273139
 C       -14.5838486601       -1.3624208764        4.4717584286
 C        -7.2224295218        0.4628694971        3.1564723518
 C        -8.4232408019        2.6270300225        2.5310816694
 C       -11.3311333357        0.4995693316       -2.6199874111
 C       -10.6462745702        2.7179608681       -3.7410252798
 C       -12.4210698321        7.0919738116        1.8607141599
 C       -14.6814245249        7.0829495355        0.9929830292
 C        -9.4733425605        8.8095443522       -5.0207794639
 C        -9.3956595513        6.2406115812       -5.2329229506
 C        -3.1076225869        4.7831098891       -1.8887267753
 C        -3.8383834752        4.6808013626        0.5917940602
 H        -1.2101165988        7.3253445272       -0.5988936153
 H        -1.5500778956        5.9237640696        0.2919334397
 H        -1.8966782504        7.4698218606        0.9231707423
 H        -5.2263597110        6.9019167600       -2.7810730010
 H        -6.0429838217        7.3609613144       -1.3120727819
 H        -8.0454782115        6.0506964596       -1.7836901098
 H        -7.2548016149        5.2580025097       -3.1894092223
 H       -11.7094090870        8.7733117239       -2.6994919079
 H        -9.9941291967        9.0318611051       -2.3047404981
 H       -10.8325987847        8.5537339301       -0.1471332694
 H       -10.5842376245        6.8440135229       -0.5998365186
 H       -14.4796425899        5.4495501936       -1.4058793781
 H       -14.4876169729        3.7971311471       -0.6599248765
 H       -11.8256670181        4.7931452733       -1.6351532578
 H       -12.8574139260        4.4766036434       -2.9832178534
 H        -8.4336431197        3.1528958656       -1.9890242399
 H        -8.4518663684        1.4039024065       -2.3863329400
 H        -7.4676537510        2.9318263484        0.0863483348
 H        -6.6142115541        1.6391642908       -0.7630274148
 H        -9.5359376889       -1.4924884548        3.2389775404
 H        -9.3709841070       -1.4535637565        1.4908442309
 H       -11.7884917750       -2.3666779945        2.0805303730
 H       -12.0103889933       -0.8746106890        1.5447821594
 H       -14.3793159551        1.1151835267        6.0530376565
 H       -12.9598835996        2.2016669790        5.7019043447
 H       -12.7938454574        0.3256566464        5.9056974798
 H       -14.2013493993       -1.3122547688        1.4307861385
 H       -14.2111015385        0.4344626363        1.4854203107
 H       -15.3953957668       -0.5120697590        2.3564999899
 H       -15.4903290660       -0.8676572788        4.6637665395
 H       -14.0214955673       -1.5278459408        5.3745665020
 H       -14.6232956234       -2.3606495474        4.0714409849
 H        -7.5525634350        0.5635737637        4.1853973042
 H        -6.2430664031        0.9157306443        3.0445775364
 H        -7.0837586343       -0.5388574719        2.9777964994
 H        -9.1185745286        3.1339088443        1.8418850014
 H        -7.4527221325        3.1062126995        2.3699911061
 H        -8.8374457189        2.8974852664        3.4839688811
 H       -10.3844886531        0.1565990425       -3.0360213830
 H       -12.1034715657        0.4153125178       -3.3650395677
 H       -11.6789040402       -0.0696377915       -1.8132459496
 H       -10.5922883207        3.7549853469       -3.7149834284
 H       -11.3309580071        2.2735324818       -4.4566507395
 H        -9.5863069953        2.4230059119       -4.0295003801
 H       -12.6181471783        6.3806497850        2.6097136968
 H       -12.5533862003        8.1382631129        2.2301911129
 H       -11.3640948723        7.0292078356        1.6339357468
 H       -14.9276852328        6.5407072499        1.8613584649
 H       -15.4090565988        6.8918345207        0.2034836107
 H       -14.7070833588        8.1305528883        1.2055916085
 H        -8.9418605749        8.8462345944       -5.9655527460
 H        -9.1827509927        9.6202241638       -4.4111984262
 H       -10.4920681352        8.8525945038       -5.2939705714
 H       -10.4724015557        6.0583284687       -5.4474730854
 H        -8.9787542494        5.3402553892       -4.7143940142
 H        -8.8759757334        6.4111146208       -6.1787543691
 H        -2.0584010684        4.6262001534       -1.6274619956
 H        -3.0790945707        5.4360047162       -2.7135489272
 H        -3.5071337046        3.8417802764       -2.2341739986
 H        -4.5006056217        3.8236037292        0.5755699732
 H        -4.1753795823        5.3596766471        1.3493922147
 H        -2.8900465973        4.2942024779        0.9892064527
 Na      -12.3777238554        2.0102940744        1.1511165412
