117

 C        -2.0981745829        6.7711122287       -0.7794828490
 C        -3.5723675729        6.6252924359       -0.5784165854
 O        -4.3745365013        7.5084831928       -0.2437314629
 C        -4.0100505883        5.1393384789       -0.8840216765
 C        -5.5994958648        5.4046719131       -0.9478923196
 O        -6.3290295716        4.8721677643       -0.1111497046
 C        -6.0423638911        6.3655294634       -2.0568692066
 C        -7.2032853550        6.0926969559       -2.9718761468
 C        -7.7487094107        7.4267238656       -3.5077341532
 O        -7.2290330242        8.4790418461       -3.2304752790
 C        -9.0818090893        7.3457195047       -4.3528508823
 C       -10.1640246302        7.0153746715       -3.3163578294
 O       -10.1944702685        5.8370657686       -2.9759868585
 C       -10.9223738124        8.0665605263       -2.5963535946
 C       -11.2536055205        7.7639842661       -1.0888763090
 C       -12.7123328102        7.4709662671       -0.8833829037
 O       -13.5097670520        7.7465728610       -1.7769915159
 C       -13.1384728178        6.7214531169        0.4169946832
 C       -13.1016951831        5.1680632788        0.0994515214
 O       -12.4221227777        4.5071946371        0.9168482645
 C       -13.9334785096        4.5319370664       -0.9832053194
 C       -12.9871479052        3.8236460323       -2.0617231091
 C       -12.3229853332        2.4990885779       -1.6152168090
 O       -13.0016289612        1.7912299942       -0.8824232394
 C       -10.9687078291        1.9795222969       -2.1041079085
 C        -9.8649982917        2.2520370386       -1.0824736458
 O       -10.1161789831        2.4781948770        0.0760014174
 C        -8.4780838316        2.0185535410       -1.5440959978
 C        -7.4925475786        1.9050302829       -0.3222984414
 C        -8.1379452409        0.8993347084        0.6430123565
 O        -8.4152296433       -0.2245990960        0.3715484594
 C        -8.3205853011        1.1109544756        2.2576004714
 C        -9.8019767026        0.6716176450        2.5981187575
 O       -10.7228771074        1.4558389671        2.6256920387
 C       -10.0214745088       -0.8515671624        2.6409795178
 C       -11.5096024698       -1.1860735956        2.3684341873
 C       -12.3453159308       -0.9047587882        3.6593674072
 O       -11.9949428579       -1.2979214360        4.7392906465
 C       -13.7594917335       -0.2377958087        3.5299809024
 C       -13.6257024078        1.3135934038        3.9439773085
 O       -13.4031435614        2.2198180429        3.1788364840
 C       -13.4158093981        1.5307641708        5.4777920867
 C       -14.3659011651       -0.3705700723        2.1885792452
 C       -14.7212484496       -0.9582907571        4.5365251052
 C        -7.2502265849        0.2832865158        2.9174936697
 C        -8.1914824108        2.6742837257        2.6879974981
 C       -11.1678492459        0.5096365337       -2.4330198868
 C       -10.5356975819        2.6618851469       -3.5084413245
 C       -12.0376408809        7.0201423727        1.5366757507
 C       -14.5600825068        7.0604754653        1.0028698721
 C        -9.3948204881        8.6874166352       -5.0028543199
 C        -9.0357190865        6.2139394554       -5.4299747017
 C        -3.4248489042        4.6364741412       -2.1987231143
 C        -3.6695458517        4.2767717853        0.3606446128
 H        -1.7769973810        7.0815265210       -1.8218920644
 H        -1.6340909795        5.8591814338       -0.4943799989
 H        -1.6323081385        7.5546090864       -0.2442645440
 H        -5.1382046826        6.5577694615       -2.6889190739
 H        -6.2304155758        7.3212440338       -1.5298088453
 H        -8.0507283634        5.4671673241       -2.6102828666
 H        -6.8390915439        5.5889299548       -3.8919821543
 H       -11.8286828492        8.3536219734       -3.2016072213
 H       -10.3243304413        8.9374438658       -2.7524079694
 H       -10.9446445128        8.6381884425       -0.5221044748
 H       -10.5176011222        6.9922182746       -0.7661999556
 H       -14.5142745987        5.3031608141       -1.5157422435
 H       -14.6239545139        3.7691132751       -0.5886185859
 H       -12.2578667995        4.5620961440       -2.4488112237
 H       -13.6137415257        3.7153120393       -2.9267898258
 H        -8.2079394499        2.6862569389       -2.3349882686
 H        -8.4921782967        0.9685779025       -1.9922080453
 H        -7.4009103765        2.9128484178        0.1608127826
 H        -6.5665773824        1.5015500031       -0.6828039330
 H        -9.7211475973       -1.1889815204        3.6915162346
 H        -9.4265902193       -1.4166313945        1.9005478557
 H       -11.7003621433       -2.1688056321        1.9654927542
 H       -11.9354295000       -0.5878879245        1.5996503277
 H       -14.3313339200        1.3450280100        6.0128714099
 H       -12.9438534727        2.5167829051        5.6565090604
 H       -12.6673322192        0.7190715828        5.7116465920
 H       -14.6019759136       -1.4183771326        1.9348953618
 H       -13.7029667116        0.0055396723        1.4253488418
 H       -15.1415401370        0.3023684425        2.1088188767
 H       -15.6257278261       -0.4047596151        4.7061656327
 H       -14.0854429426       -1.1864722546        5.4278475561
 H       -14.9677167988       -1.9397147028        4.0701223695
 H        -7.5519780614        0.1006650749        3.9644521629
 H        -6.2552052106        0.7685358640        2.9437798310
 H        -7.2015037827       -0.6309133124        2.4879263836
 H        -8.9532754206        3.3876465827        2.3931961201
 H        -7.3187473501        3.1363083996        2.2714906235
 H        -8.0269652632        2.7344609197        3.7594915879
 H       -10.2949331369        0.1575527180       -2.8839050113
 H       -12.0073502343        0.4494513791       -3.1732641052
 H       -11.3758184162       -0.0437797664       -1.5216851773
 H       -10.4401555747        3.6933694992       -3.4234760102
 H       -11.3290629388        2.4706497768       -4.1508906698
 H        -9.6342250236        2.1859671166       -3.9242518255
 H       -12.4413341776        6.6155750373        2.4588768949
 H       -11.8680170390        8.1343766301        1.5854202114
 H       -11.0125719656        6.5284041730        1.5069675980
 H       -14.8249633328        6.3772273003        1.7268295805
 H       -15.3761239505        7.0664829723        0.2408538148
 H       -14.4880874937        8.0767309695        1.3912927066
 H        -8.6897593934        8.9795324099       -5.8174559674
 H        -9.3068225816        9.4520002078       -4.2948449257
 H       -10.3863227741        8.5655900251       -5.5333537623
 H        -9.7728364117        6.4694894061       -6.1636225804
 H        -9.2463127461        5.3024861936       -4.8883832509
 H        -8.0493272466        6.0196207081       -5.8416070181
 H        -2.3114751981        4.5226875934       -2.1218077726
 H        -3.6411680672        5.2221002470       -3.0834169705
 H        -3.6969423942        3.5713860699       -2.3810921377
 H        -4.0275347905        3.2460994351        0.2119538743
 H        -4.2277825411        4.6747133309        1.2228944028
 H        -2.6486391939        4.1379937004        0.6391255607
 Na      -12.2359216481        2.2571871180        1.1294396577
