117

 C        -2.0307692547        6.8281155543       -1.2783253564
 C        -3.3312018537        6.4115637734       -0.5770339856
 O        -3.8756377558        7.1597559758        0.2240714065
 C        -4.1257846123        5.0993176232       -0.8568418067
 C        -5.5766791719        5.4948155991       -0.9636216549
 O        -6.4792370328        5.0123741165       -0.2682854809
 C        -5.8989989516        6.6562726751       -1.9595054721
 C        -7.0012640124        6.2144271206       -2.9256586423
 C        -7.8304879384        7.4460046975       -3.4021993660
 O        -7.5562640411        8.5549052782       -3.0268537332
 C        -9.0439853427        7.2735097163       -4.4438920229
 C       -10.1192930174        6.9280080212       -3.4312028449
 O       -10.2131106366        5.7620433120       -3.0388722341
 C       -10.9129840988        8.1258189769       -2.7942859056
 C       -11.3557950282        7.8776684085       -1.3673005758
 C       -12.7645318473        7.3058068586       -1.1415624700
 O       -13.6842677003        7.4909672407       -1.9109695624
 C       -13.0892517453        6.6590577818        0.3066670280
 C       -12.9601107540        5.1379646596        0.1563630659
 O       -12.0968538674        4.5230581466        0.8364554355
 C       -13.7299295647        4.5332589489       -0.9993574563
 C       -12.7851042657        3.8655009212       -2.0471009194
 C       -12.3028363167        2.4962567218       -1.5829639982
 O       -12.8964469525        1.8142711793       -0.7385204621
 C       -11.0511354495        1.9503423264       -2.2351696045
 C        -9.9376098806        2.1494415773       -1.1708110785
 O       -10.2027174098        2.3571908651       -0.0135781270
 C        -8.4595380869        2.0255890614       -1.5471005332
 C        -7.5954900175        1.9357793015       -0.2099780544
 C        -8.2023948525        0.8970016255        0.7740112003
 O        -8.7825734118       -0.0307015130        0.2617472847
 C        -8.1713060840        1.0619948048        2.3295038830
 C        -9.6194954281        0.5245764169        2.8250740642
 O       -10.3669277119        1.4321803384        3.0626483919
 C       -10.0664236055       -0.9074448638        2.8599164838
 C       -11.5697991568       -1.0578207194        2.5417205644
 C       -12.4892686022       -0.7360102279        3.7375779275
 O       -12.0517345906       -1.0090757838        4.8058335847
 C       -13.9927040362       -0.1257013764        3.5767844248
 C       -13.6718077734        1.4335295753        3.9433970937
 O       -13.7772678277        2.2644511948        3.0372919328
 C       -13.4173008238        1.7258706907        5.3983428702
 C       -14.5413761593       -0.1636978280        2.1708289171
 C       -14.8939533142       -0.7936888499        4.5988082255
 C        -7.0660245885        0.0695766381        3.0165186809
 C        -7.8935416516        2.4444042671        2.7797274465
 C       -11.1842445375        0.3695468320       -2.3301870081
 C       -10.6660046399        2.5365987633       -3.6482679098
 C       -12.1229965006        7.1329136524        1.4782955076
 C       -14.5867860119        7.1647833730        0.6311740117
 C        -9.2423693708        8.5753672701       -5.2464544811
 C        -8.8414171548        6.0776618544       -5.4718175675
 C        -3.8162418655        4.4911000992       -2.2163148393
 C        -3.8794967370        4.0628017967        0.2178204307
 H        -2.1203384463        6.7111473639       -2.4033678428
 H        -1.0818510435        6.4134255935       -0.9635158269
 H        -1.9168984415        7.9163956949       -1.2113327260
 H        -5.0343139564        6.9493708857       -2.5268747395
 H        -6.2183774066        7.5274556758       -1.3692729452
 H        -7.7915504037        5.6347650408       -2.4888948302
 H        -6.6586557804        5.6749542210       -3.7727400279
 H       -11.7487249968        8.5042778930       -3.4222925330
 H       -10.2832078946        8.9874310513       -2.9223283689
 H       -11.1519387996        8.7055553972       -0.7330423652
 H       -10.5910607698        7.1111315912       -0.9978055115
 H       -14.3231501193        5.3333014970       -1.4035412677
 H       -14.3929204258        3.7750411678       -0.6064034158
 H       -12.0539729484        4.5841677818       -2.4834980329
 H       -13.3801665101        3.5968818666       -2.9010402485
 H        -8.0946960707        2.8773878863       -2.1326438608
 H        -8.3418218197        1.1828948671       -2.1758490194
 H        -7.6236828812        2.9790131877        0.1447230691
 H        -6.5730445434        1.7605714671       -0.5560013339
 H        -9.9492800967       -1.1858314157        3.8776983107
 H        -9.4559316110       -1.5479766375        2.1963338925
 H       -11.8604704465       -2.1310686699        2.2323065658
 H       -11.8865123816       -0.4002556217        1.7131344892
 H       -14.3746938735        1.6021689367        5.8357490823
 H       -13.0614078785        2.7525905181        5.5058659832
 H       -12.5972080479        1.1230228584        5.8098559219
 H       -14.6146131932       -1.2865545733        1.9688080914
 H       -14.0404552442        0.4333252471        1.3926447222
 H       -15.5048666640        0.3178825654        2.1581051865
 H       -15.8775973196       -0.3649745480        4.5875082827
 H       -14.3414586584       -0.6655808666        5.5270247795
 H       -15.1315455082       -1.8133535273        4.2733571613
 H        -6.9342919253        0.3013262160        4.1338718672
 H        -6.0414620571        0.3608630007        2.6164678965
 H        -7.2428991863       -0.9299015063        2.8782870620
 H        -8.4162525398        3.1720662044        2.1460955987
 H        -6.8330725906        2.7602186499        2.6643596107
 H        -8.1239867631        2.5668967846        3.8187568549
 H       -10.1582943614       -0.0281610469       -2.5044525762
 H       -11.7690680458        0.1516403463       -3.2461039562
 H       -11.4832476111       -0.0298509998       -1.3659080928
 H       -10.4748483990        3.5808811921       -3.5525188440
 H       -11.5607043553        2.5085380990       -4.3376284746
 H        -9.8395253996        1.8869284069       -4.1250593982
 H       -12.4131296423        6.7059024308        2.3962868274
 H       -12.1596512862        8.2279700176        1.6291833034
 H       -11.1267220188        6.8379104634        1.2087373433
 H       -14.8094120006        6.9778474303        1.6790672909
 H       -15.4070516550        6.6320667933        0.0694258081
 H       -14.7095708005        8.2545999471        0.4640931770
 H        -8.8032415299        8.4115137927       -6.2739210482
 H        -8.6456728869        9.3731702473       -4.8335048245
 H       -10.2882015911        8.8930266753       -5.2980681281
 H        -9.7419273091        5.9219732648       -6.0802192181
 H        -8.5802965258        5.2038491021       -4.8672516652
 H        -7.9765729276        6.2561452838       -6.0809033236
 H        -2.8940928357        3.9067153601       -2.1915623221
 H        -3.7137756235        5.1988317781       -2.9942613780
 H        -4.5969813969        3.8274087733       -2.5205187474
 H        -4.1132704064        3.0734017898       -0.1582558219
 H        -4.4950369571        4.1970715799        1.0860010591
 H        -2.8017239085        4.0406852205        0.5459088412
 Na      -12.1105908854        2.3375829858        1.5074168811
