117

 C        -2.1067325330        6.6761471915       -1.4049170070
 C        -3.2762197476        6.4115584737       -0.5026812694
 O        -3.5693372286        7.1168395326        0.4466599633
 C        -4.0880390767        5.1106789601       -0.8944577910
 C        -5.5954725364        5.5824731352       -0.9409251486
 O        -6.4549781989        4.8896921723       -0.4802907008
 C        -5.9475236174        6.7672742813       -1.8946292593
 C        -6.9979892625        6.3055079650       -2.8506826368
 C        -7.7645599720        7.5033654593       -3.5291164653
 O        -7.7220955784        8.6003713242       -3.0010269696
 C        -8.9142300701        7.2591134848       -4.5285174100
 C       -10.1266250424        6.9238338704       -3.4688496009
 O       -10.3404373642        5.7703004385       -3.1338368645
 C       -10.9436600940        8.0186084334       -2.8770458418
 C       -11.3178669692        7.9399391759       -1.3502832652
 C       -12.7478491639        7.4122614622       -1.0548422325
 O       -13.5385593344        7.3323698330       -2.0071404077
 C       -13.0811923074        6.7781791241        0.2936840795
 C       -12.9075910559        5.2238428677        0.0975348417
 O       -12.1665893902        4.6115965762        0.8538186943
 C       -13.6996440510        4.4489630005       -0.9613776393
 C       -12.7544165949        3.8174700050       -2.0650609707
 C       -12.3210721676        2.4118221154       -1.6666430279
 O       -12.8234572867        1.8765173037       -0.6747892432
 C       -11.0307865532        1.9254696263       -2.2469570181
 C        -9.9442901957        2.1876781715       -1.0953637881
 O       -10.2649981421        2.3389138445        0.0780419729
 C        -8.4801327811        2.0635247030       -1.5007160878
 C        -7.6634805320        1.9065660466       -0.2176191453
 C        -8.2471623888        0.8630407198        0.6889422117
 O        -8.7704159329       -0.1560272829        0.2843092441
 C        -8.1543248166        1.0527234219        2.3415452933
 C        -9.6223384760        0.5848887539        2.8885453111
 O       -10.3804999779        1.4287630007        3.2973490425
 C       -10.0996983507       -0.8873281132        2.8372160158
 C       -11.5721584891       -0.9812915991        2.5230939260
 C       -12.4823246345       -0.6425285382        3.7705842892
 O       -12.1475962385       -0.8841380589        4.9316885125
 C       -13.9367360775       -0.0402161233        3.5678284966
 C       -13.7621231879        1.4819375500        3.9136290463
 O       -13.7257936353        2.3599061244        3.0897475526
 C       -13.4803402090        1.8221166770        5.3621152746
 C       -14.5056647691       -0.3488099844        2.1392787945
 C       -14.8563714660       -0.7402806093        4.5910441265
 C        -7.1511308871       -0.0565897745        2.8948907187
 C        -7.7468807156        2.4189183753        2.8321111861
 C       -11.1076168383        0.3544832636       -2.3220991822
 C       -10.7225024103        2.4625345148       -3.6753900886
 C       -12.2226400219        7.2459062562        1.4428416445
 C       -14.5692905492        7.0442808616        0.5653645691
 C        -9.2230058255        8.5300363459       -5.3296974959
 C        -8.8329636638        6.0065874599       -5.4309189865
 C        -3.8150333585        4.4781867152       -2.2920068020
 C        -3.9481183270        4.0170440690        0.2469199491
 H        -2.2119200443        6.3286880987       -2.4918171872
 H        -1.2403973863        6.1226190897       -0.9626628153
 H        -1.7372894281        7.6928649226       -1.4934238959
 H        -5.0331415074        7.0728467250       -2.4569720568
 H        -6.3059599198        7.6480812874       -1.3478148396
 H        -7.8212330039        5.8634696057       -2.3196702126
 H        -6.6800829220        5.6140873901       -3.6031048425
 H       -11.9003119058        8.0448558325       -3.4403454788
 H       -10.5995468767        8.9623956767       -3.2458956193
 H       -11.1738700870        8.9674726358       -0.9634303665
 H       -10.5222602794        7.3971378472       -0.7895189928
 H       -14.3877556804        5.1652050019       -1.3765413029
 H       -14.2343345254        3.6906298891       -0.4449398249
 H       -11.8506505998        4.4398691527       -2.0438804836
 H       -13.0952700334        3.9521850078       -3.0594739122
 H        -8.1299966463        2.8004107472       -2.1454967947
 H        -8.4226405191        1.0989584168       -2.0763544216
 H        -7.5772871226        2.9416433855        0.2125213386
 H        -6.6505588206        1.6175049406       -0.5085145387
 H        -9.9398193951       -1.2606456571        3.8873335824
 H        -9.5173715116       -1.4324143258        2.1076169405
 H       -11.9050629865       -1.9990160748        2.2303298332
 H       -11.8191452326       -0.2772845001        1.6938105728
 H       -14.3892150150        1.8124216016        5.9460016085
 H       -12.9882335814        2.7800874400        5.4029280322
 H       -12.6578125008        1.1702778123        5.6865922611
 H       -14.3675242551       -1.4094029891        1.8578000372
 H       -14.1655899573        0.4080375330        1.4364487861
 H       -15.5441607944       -0.0746601187        2.1824354332
 H       -15.8286633341       -0.2902828913        4.5228852660
 H       -14.4275881095       -0.7588707006        5.6109729085
 H       -15.1173454632       -1.6684243205        4.0843370295
 H        -6.8972388813        0.2337654727        3.9184685850
 H        -6.1680689494        0.0761658677        2.4028431939
 H        -7.4774689612       -1.1256098451        2.8704531879
 H        -8.3930909924        3.1235904876        2.2823163164
 H        -6.7543442333        2.7746148258        2.6357281308
 H        -7.9114553163        2.5335128779        3.9183536156
 H       -10.1138805868        0.0729670024       -2.5054532326
 H       -11.6661655151        0.0481555627       -3.2603718429
 H       -11.3081957932       -0.0867435313       -1.3189007874
 H       -10.2308719306        3.4343249233       -3.6240588540
 H       -11.6274341545        2.7396411564       -4.1427527702
 H       -10.2398556006        1.6853864647       -4.2836295420
 H       -12.6198410717        6.8145625047        2.3639759722
 H       -12.2590131479        8.3133186128        1.6377155094
 H       -11.1840388301        6.9017540917        1.1852351344
 H       -14.9916727669        6.6988758019        1.4895552359
 H       -15.1397443060        6.5049668875       -0.2500879139
 H       -14.8390092792        8.1453687516        0.4939184171
 H        -8.6111750523        8.5558368856       -6.2487294677
 H        -8.9359064157        9.3999135856       -4.7334736844
 H       -10.3748076905        8.6456304229       -5.5310344175
 H        -9.8248831117        5.7966546017       -5.7635559445
 H        -8.4804057308        5.1790250410       -4.8313141119
 H        -8.1642732122        6.1450589805       -6.2916124998
 H        -2.7694363131        4.1524052578       -2.3699514638
 H        -3.9920251497        5.1213321918       -3.1405241700
 H        -4.4741325784        3.6094096265       -2.4484647366
 H        -4.6166283695        3.1280800792        0.1285728009
 H        -4.3675802206        4.5418549247        1.1475341385
 H        -2.9735339521        3.7085946712        0.4726247665
 Na      -12.1394739937        2.3836325690        1.5380644084
