117

 C        -1.9264778408        6.6695600338       -1.5372207043
 C        -3.0546097684        6.2853572820       -0.5680183134
 O        -2.9620008572        6.6748579799        0.5821390823
 C        -4.1300593681        5.1312728420       -0.8414931783
 C        -5.6886677369        5.5419640281       -0.9993521726
 O        -6.5707887905        4.6868202115       -0.8063635863
 C        -6.1259977676        6.8819101141       -1.7591109578
 C        -7.0297668600        6.4736298547       -2.9429596140
 C        -7.9665052438        7.6544005611       -3.3971163920
 O        -7.8280774988        8.8105568173       -3.0945035202
 C        -9.0604459575        7.2220535069       -4.4848339455
 C       -10.3059764109        6.8529518679       -3.6417449884
 O       -10.5364134368        5.7336109295       -3.1920763417
 C       -10.9833555992        8.0994927632       -3.0279219762
 C       -11.3180173031        7.9808463552       -1.5040538897
 C       -12.6385500072        7.3631117298       -1.3005200036
 O       -13.3682710460        7.0747228779       -2.2193021975
 C       -13.1217341912        6.8387915869        0.1618591882
 C       -12.8832478791        5.2829839689        0.2152595539
 O       -12.1918450198        4.6997071204        1.0629740261
 C       -13.6378341842        4.5319984077       -0.9139113549
 C       -12.7680179659        3.7873116246       -1.9248001721
 C       -12.3541069877        2.4072236452       -1.5390542519
 O       -12.9739041471        1.8053362218       -0.6867892728
 C       -10.9822329049        1.7757823401       -2.1470213052
 C        -9.9003164453        2.0423713898       -1.0672580346
 O       -10.2410170808        2.3448497895        0.0579103359
 C        -8.3721898174        2.0347869765       -1.3922315074
 C        -7.6565769923        1.8183432027       -0.0565657659
 C        -8.3458937268        0.7383108483        0.7997468863
 O        -8.6483119086       -0.3094372091        0.2659650787
 C        -8.2169996450        0.8800457942        2.3795788646
 C        -9.6547310153        0.6926618324        2.9483037701
 O       -10.3308212781        1.6532819072        3.3204104096
 C       -10.2136077809       -0.7573722033        2.8320537420
 C       -11.7158481036       -0.8664178462        2.5751663932
 C       -12.4509485730       -0.5228615498        3.9201942113
 O       -11.9910396903       -0.6544147388        5.0042654025
 C       -13.9250805304        0.0376626358        3.5992835393
 C       -13.7969275111        1.5202360822        3.9078597749
 O       -13.7534535788        2.3610195015        2.9881061587
 C       -13.7686752218        1.9596084176        5.3635799777
 C       -14.3638196196       -0.2211037966        2.2050435629
 C       -14.9188189702       -0.6501314577        4.6527382839
 C        -7.2141888562       -0.2863486981        2.6831938021
 C        -7.7018800103        2.2722248188        2.8292203994
 C       -11.1390399689        0.2476549348       -2.2600572265
 C       -10.5873970146        2.3961122227       -3.4989654848
 C       -12.3561892667        7.5237359675        1.3249054760
 C       -14.6793498342        7.0805207160        0.3845046349
 C        -9.2829507098        8.3605032309       -5.5035640658
 C        -8.6047433340        5.9830291158       -5.2247661987
 C        -3.7205595392        4.3675268620       -2.1815164775
 C        -4.0645346517        4.1172372215        0.3517832210
 H        -2.2760493350        6.9351073028       -2.5156247860
 H        -1.2198394416        5.8925844101       -1.6902239022
 H        -1.3206289254        7.4621572907       -1.0999137874
 H        -5.2540811957        7.4272289058       -2.0816406377
 H        -6.6841500659        7.5288929681       -1.0505379252
 H        -7.6650765741        5.5899092487       -2.6377052240
 H        -6.5710310850        6.3295164371       -3.9530765372
 H       -11.7783602901        8.4893777650       -3.6389576903
 H       -10.3115479247        8.9623544586       -3.2131817725
 H       -11.1588641893        8.9705737716       -1.1072476631
 H       -10.5410953379        7.4253836525       -0.9999066284
 H       -14.2726032508        5.3167918874       -1.3781064893
 H       -14.3044564878        3.7401543524       -0.4362492722
 H       -11.9095135426        4.3744549661       -2.2890165792
 H       -13.4365029053        3.6678005117       -2.8248779697
 H        -8.2510337060        3.1266607953       -1.7914542848
 H        -8.0783278633        1.3968484685       -2.2016201389
 H        -7.6591458021        2.8065412180        0.3427635050
 H        -6.6010395547        1.5010245027       -0.1016245664
 H        -9.9908262448       -1.2421143258        3.7737449525
 H        -9.7243613115       -1.2453858208        1.9414888481
 H       -12.0014385984       -1.9133577850        2.4935423258
 H       -12.0150265440       -0.2685245546        1.7214287301
 H       -14.8451111593        1.9105266031        5.6014662283
 H       -13.3677025540        2.9624073089        5.6009400162
 H       -13.1031805358        1.2981330650        5.9361596579
 H       -14.1066411644       -1.2276082141        1.9244904761
 H       -13.9136904783        0.5546698154        1.6290318372
 H       -15.4394454260       -0.1083047428        2.0872796191
 H       -15.8357209340       -0.0483902297        4.6330180097
 H       -14.4143448028       -0.4412281641        5.5603467483
 H       -15.2471894966       -1.6615173080        4.4440378095
 H        -7.1991658308       -0.4008429984        3.7799045183
 H        -6.2115517849       -0.1185072760        2.3175437850
 H        -7.5989556596       -1.1354387012        2.3127142679
 H        -8.3170941822        3.1613893043        2.7853279976
 H        -6.7176250475        2.5032028111        2.3797880197
 H        -7.4590718523        2.1085787012        3.8568766694
 H       -10.2385286771       -0.2424697916       -2.6954241327
 H       -11.9283516622        0.1456993743       -2.9240375182
 H       -11.2618685466       -0.1443841078       -1.3061647410
 H       -10.2922825494        3.3830427059       -3.4143770329
 H       -11.3726387805        2.4376814376       -4.2503958560
 H        -9.7700060644        1.7628772728       -3.8807009091
 H       -12.7385964483        7.2274031422        2.3000573044
 H       -12.5946121211        8.6161047333        1.3694082057
 H       -11.3122672199        7.3566195422        1.1631506696
 H       -15.1517691188        6.2163877613        0.8589462100
 H       -15.2492595667        7.2714654905       -0.4858611801
 H       -14.8585025744        7.8416615439        1.0809119020
 H        -8.3178046601        8.6250214766       -5.9378914814
 H        -9.8253960863        9.2215662099       -5.1557021643
 H        -9.9068526935        7.9754574912       -6.2306963507
 H        -9.4578972126        5.6586834164       -5.8657820541
 H        -8.4893176719        5.1272568860       -4.5412653171
 H        -7.7767446270        6.2308999997       -5.8554324663
 H        -2.6322773344        4.2233079882       -2.2783419723
 H        -3.9584310148        5.0815958484       -3.0167407696
 H        -4.3051908724        3.4801905422       -2.4247292962
 H        -5.0383972100        3.7581751169        0.5880986212
 H        -3.6954233551        4.5393946135        1.2521354982
 H        -3.3790301014        3.2456226419        0.0715688172
 Na      -12.0141285232        2.4955134829        1.5338599383
