117

 C        -2.0276894803        6.6434333368       -1.5951189718
 C        -2.9674011751        6.1684598346       -0.5021849525
 O        -2.8101788902        6.5229892962        0.6512811491
 C        -4.0956290169        5.0915692985       -0.8776297619
 C        -5.5888640879        5.4968408453       -1.1484948770
 O        -6.4528468988        4.6830936631       -0.8901937589
 C        -6.1507589653        6.9025242315       -1.6651494415
 C        -6.9671699022        6.6061860861       -2.9566331951
 C        -7.9059841179        7.7118249728       -3.5421904736
 O        -7.9360132985        8.8386579659       -3.1039177275
 C        -9.0560322310        7.1714306139       -4.5540434831
 C       -10.2704537350        6.9495613460       -3.5429205900
 O       -10.6607876438        5.8232712361       -3.2510857472
 C       -10.9551545314        8.2092857939       -2.9464188462
 C       -11.3977122554        7.9498591814       -1.5028061832
 C       -12.7186674075        7.1899940930       -1.3557968407
 O       -13.4890045275        6.9813493044       -2.3034097617
 C       -13.1611261837        6.8465425714        0.1251895427
 C       -12.8804175267        5.3051331349        0.1791355452
 O       -12.2191652088        4.8439373968        1.1288346450
 C       -13.6531550734        4.4550041185       -0.8482358665
 C       -12.7679485258        3.7329946650       -1.9454048358
 C       -12.3335574615        2.3719639409       -1.4816733912
 O       -12.9828349707        1.6765584147       -0.7046404241
 C       -11.0330375144        1.7647155193       -2.0458226623
 C        -9.8878663313        2.1286450964       -1.0188022997
 O       -10.1003932733        2.2967051486        0.1627635179
 C        -8.4176823188        2.0400732097       -1.3678738878
 C        -7.6193172763        1.8612783895       -0.1229620970
 C        -8.1478145627        0.7069881026        0.7653581862
 O        -8.7061966199       -0.2558943805        0.3129224489
 C        -8.1391460304        0.7655487808        2.3742802861
 C        -9.6508920265        0.6528139099        2.7982807998
 O       -10.2980196318        1.6262034079        3.0932423544
 C       -10.1386155496       -0.7820001345        2.8859231248
 C       -11.6800004803       -0.8882332204        2.6582098724
 C       -12.5045917631       -0.5047304267        3.9009009482
 O       -11.9560701850       -0.5246320858        4.9972055908
 C       -13.9178154726        0.0822154520        3.6936218718
 C       -13.9143951045        1.5978705207        3.9410060793
 O       -13.7194875651        2.3414097882        2.9916194172
 C       -13.9627447741        2.1128880935        5.3870574561
 C       -14.5359512640       -0.1048552056        2.2614881755
 C       -14.9729142865       -0.6551075926        4.6762440581
 C        -7.2669243278       -0.3425659540        2.8531170291
 C        -7.6183561806        2.1749955103        2.9057489206
 C       -11.2699244051        0.2426818630       -2.1921211616
 C       -10.5442806540        2.4031945921       -3.4529207693
 C       -12.3217528326        7.6355493347        1.2136318247
 C       -14.6168922757        7.1938846378        0.2103744269
 C        -9.3194592358        8.3072854273       -5.5668950957
 C        -8.5029383752        5.8647552528       -5.2078455568
 C        -3.7827445474        4.3308463459       -2.1562243438
 C        -4.0830192431        4.1344053712        0.3676193585
 H        -2.6651480534        7.2129371888       -2.3377505618
 H        -1.5073888638        5.9422881092       -2.1884750073
 H        -1.2869968878        7.2362061096       -1.1733635209
 H        -5.3277420275        7.5479253348       -1.9021415285
 H        -6.6899882380        7.3266651860       -0.8138028746
 H        -7.6935591004        5.8134809200       -2.6904112342
 H        -6.3851625177        6.3079269706       -3.8211163062
 H       -11.7816125998        8.4831443135       -3.6440170939
 H       -10.3799655314        9.0955132182       -3.0873097300
 H       -11.3745784104        8.8855459893       -1.0506619925
 H       -10.5387179842        7.4180237784       -1.0171793563
 H       -14.3956645777        5.1541277066       -1.2465846573
 H       -14.1913309086        3.6650267243       -0.2571771571
 H       -11.8107630127        4.3100190552       -2.2005943295
 H       -13.3457347199        3.6741084387       -2.8674310178
 H        -8.0594616616        2.7485203311       -2.1293995707
 H        -8.3723106966        1.0483107925       -1.8232328073
 H        -7.6685759092        2.8247438456        0.4229909793
 H        -6.5761054308        1.7432379805       -0.3542883918
 H        -9.8801836041       -1.0630412110        3.8762616724
 H        -9.6448743785       -1.3912676547        2.1210580926
 H       -11.9885913171       -1.9223947293        2.2810366625
 H       -11.9463284146       -0.0941580327        1.9652319957
 H       -14.9707051380        2.0697053941        5.7288711763
 H       -13.5987752394        3.1458884890        5.4980025170
 H       -13.1921998336        1.5250921019        5.9441038299
 H       -14.5177217558       -1.2152642084        2.0090809161
 H       -13.8970241206        0.4986818119        1.5931282701
 H       -15.5480121263        0.2035354959        2.2301780041
 H       -15.8840135907       -0.0996430455        4.5914290759
 H       -14.5557931774       -0.5352859080        5.6740208341
 H       -15.1777231601       -1.6928192243        4.3806608636
 H        -7.4620369991       -0.5779801567        3.9073822341
 H        -6.2189673209       -0.0745135821        2.6834770927
 H        -7.4643177073       -1.2266711768        2.2697123661
 H        -8.2600420261        3.0577873765        2.7386498616
 H        -6.6037136547        2.3956789010        2.5385914396
 H        -7.5367741253        2.1177018042        3.9811447918
 H       -10.4042043652       -0.1740290150       -2.6024503304
 H       -12.0909912932        0.1970483397       -2.9370931551
 H       -11.4764891897       -0.2327293524       -1.2461547837
 H       -10.5642056890        3.4851949379       -3.5734683639
 H       -11.1064867732        2.0399296479       -4.3381752952
 H        -9.4757836414        2.0075498887       -3.6015650726
 H       -12.6441316584        7.3714558794        2.1577562439
 H       -12.6030347520        8.6823282100        1.1971127304
 H       -11.2674939083        7.4964746320        1.0715757545
 H       -15.1987532041        6.3797753043        0.4333210988
 H       -15.0341734391        7.5703625715       -0.7402047874
 H       -14.8865093562        7.8913062628        0.9800523514
 H        -8.3698389116        8.6576452494       -5.8950725989
 H        -9.9644393937        9.0349053102       -5.2925353037
 H        -9.8466840380        7.8624440423       -6.4348439534
 H        -9.0180827212        5.6047931649       -6.1428840666
 H        -8.7420386652        5.0283537846       -4.5377329127
 H        -7.4557507557        6.0387130610       -5.4670182996
 H        -2.8377402593        3.7640090377       -2.0800768790
 H        -3.6749736812        4.9656682644       -3.0119811516
 H        -4.6185708243        3.6833085755       -2.3780994062
 H        -5.0878837643        3.8431292924        0.6260375489
 H        -3.7380699044        4.6960355031        1.2387911687
 H        -3.4361656968        3.2767396404        0.2561601081
 Na      -11.9270725248        2.5240513002        1.5344116860
