117

 C        -2.4753551589        6.8851101072       -1.7634160523
 C        -3.0539521386        6.0939503149       -0.6153634960
 O        -2.6331710135        6.2220782655        0.5196894832
 C        -4.1305269557        4.9134114713       -0.8936560487
 C        -5.5772869262        5.4999914631       -1.2157864071
 O        -6.5777820969        4.7878245551       -1.0460117099
 C        -5.8378231109        6.8808617669       -1.8567139731
 C        -6.6585988798        6.5997581427       -3.1208675194
 C        -7.7543834047        7.7023323304       -3.4157523664
 O        -7.8163016581        8.8518976540       -3.0082924002
 C        -8.8668479766        7.1335131754       -4.4574363692
 C       -10.2699905463        6.9186051412       -3.6805679633
 O       -10.7277657185        5.8322630578       -3.3535793279
 C       -10.9690484826        8.2127066498       -3.1417955317
 C       -11.4794634410        8.0898040688       -1.6202533315
 C       -12.7172179110        7.2009519536       -1.5604585358
 O       -13.3006493919        6.8764842201       -2.5944355115
 C       -13.2817203668        6.9154102164       -0.0767981606
 C       -13.1682705267        5.3932865935        0.2331240430
 O       -12.3175646541        4.9758226525        1.0533169830
 C       -13.8856417906        4.3265520237       -0.6644089706
 C       -12.8037035508        3.6832579905       -1.6075506051
 C       -12.3189354920        2.2919205846       -1.2617683433
 O       -12.8710651002        1.6685689672       -0.3563644750
 C       -11.0214329152        1.8063782383       -1.9590166862
 C        -9.7094946427        2.1116654135       -0.9632926319
 O       -10.0290887356        2.5056942789        0.1205373414
 C        -8.2336687512        1.8338424286       -1.3660655351
 C        -7.4859643832        1.6534595163        0.0059938438
 C        -7.9720855454        0.5051660863        0.9063615140
 O        -8.4056338372       -0.5324942925        0.4610343188
 C        -7.9896409910        0.6567695346        2.4071587745
 C        -9.5734879284        0.5668760018        2.6725695888
 O       -10.2156654506        1.5464632256        2.4673051119
 C       -10.2526622944       -0.7530342083        2.9566558236
 C       -11.8228339073       -0.7867898349        2.7001891993
 C       -12.5374971676       -0.1702658998        3.9140838789
 O       -12.0236070976       -0.1546442887        5.0103894565
 C       -14.1063485836        0.2480541720        3.7624039293
 C       -13.9780237407        1.7695462003        4.0550976957
 O       -13.5572696671        2.5848367568        3.2151827803
 C       -14.5378610982        2.2265562107        5.3424406858
 C       -14.7354438620       -0.0228241293        2.3084044122
 C       -14.8566895948       -0.5083758692        4.9398859193
 C        -7.1386755976       -0.5370484011        3.0755858102
 C        -7.4880590975        1.9317041612        3.0154314608
 C       -11.0373347382        0.2432120985       -2.0259902453
 C       -10.7921962569        2.3916011570       -3.3948806261
 C       -12.5339960381        7.6268485354        1.0671847768
 C       -14.7442193057        7.2703280819        0.0418361713
 C        -9.0030367100        8.2332749727       -5.5682442424
 C        -8.5385218003        5.7166830652       -5.0840222315
 C        -3.6829333332        4.0793231162       -2.1332087175
 C        -4.2122239996        4.0356388315        0.3585965169
 H        -3.3108816404        7.3957105443       -2.3262531172
 H        -2.0397727719        6.3189457824       -2.5745865390
 H        -1.7063542173        7.5267847763       -1.3798677622
 H        -4.9556734544        7.4346875437       -2.1178092456
 H        -6.4050176819        7.4391876164       -1.0547454153
 H        -7.1849843996        5.6252909905       -3.0602351012
 H        -6.1025203369        6.6624466979       -4.0800890137
 H       -11.8248345609        8.5411258137       -3.7411569032
 H       -10.2764088295        9.0401663845       -3.3597286781
 H       -11.7152024200        9.1086907572       -1.3306300145
 H       -10.6335044583        7.7798989632       -0.9953514108
 H       -14.6977031358        4.8206224977       -1.2024138488
 H       -14.3556230413        3.6385319552        0.0684199367
 H       -11.9401241969        4.3354016458       -1.6198439974
 H       -13.2700004551        3.7267324286       -2.5893169567
 H        -7.8196064891        2.7481458384       -1.9661160980
 H        -8.0699923538        1.0197519626       -2.0471141036
 H        -7.3630270054        2.6074044240        0.5006427469
 H        -6.4503984751        1.4928190950       -0.3259962007
 H       -10.0997590492       -0.9966877913        4.0156593455
 H        -9.8083679071       -1.5523393287        2.2604811831
 H       -12.1191196656       -1.8160033881        2.5630550171
 H       -12.0936344477       -0.1521381403        1.8724968138
 H       -15.5209210380        1.8124358031        5.4036934962
 H       -14.7195897508        3.3234086876        5.3346064868
 H       -13.8482116709        2.0149067188        6.1786333564
 H       -14.6372458483       -1.1253371260        2.2585399443
 H       -14.2297683032        0.3870228323        1.4612521603
 H       -15.7593932760        0.0986687445        2.4157680006
 H       -15.8891208804       -0.1536487549        5.0185785985
 H       -14.2917827165       -0.2487742911        5.8325459029
 H       -14.6945638508       -1.6027831834        4.7822804358
 H        -7.4066929617       -0.5622908017        4.1491947813
 H        -6.0715948031       -0.4912269525        2.8615704042
 H        -7.4750587231       -1.4139344829        2.6506122867
 H        -8.0906350863        2.7703374228        2.6586165478
 H        -6.4160441358        2.0710899516        2.7437187598
 H        -7.6199278107        2.0015384530        4.0617161034
 H       -10.0269636312       -0.0708874015       -2.3335757140
 H       -11.7921889580        0.0001271262       -2.7916597731
 H       -11.3412666725       -0.1978609761       -1.0872301987
 H       -10.3737379376        3.3141243432       -3.3388742517
 H       -11.6675062301        2.4908086333       -3.9973206250
 H       -10.0475829086        1.8360513079       -3.9777558255
 H       -13.0126466197        7.4391432550        2.0434683286
 H       -12.4292880335        8.7584745243        0.8340715424
 H       -11.5101248926        7.1727933980        1.1250121508
 H       -15.3959492474        6.4806349225        0.4093139176
 H       -15.2552482006        7.7209898899       -0.8411452533
 H       -14.8732925747        8.0601616639        0.7902506279
 H        -8.3702441615        7.8930001005       -6.4584843726
 H        -8.6682188175        9.1897819520       -5.2486998815
 H       -10.0477241755        8.4287543367       -5.9085835928
 H        -9.3091770911        5.3077849391       -5.7438082495
 H        -8.4943726923        5.0440438296       -4.2325633687
 H        -7.6593586631        5.7766094665       -5.6557124835
 H        -2.5994956798        3.8271926369       -2.1129713833
 H        -3.9429117387        4.5570355320       -3.0897635657
 H        -4.1874918803        3.1221665167       -2.0474591489
 H        -4.4321056602        3.0213392228        0.0547218194
 H        -4.9710973434        4.3366975326        1.0532581751
 H        -3.1926895326        4.0601740044        0.8635553703
 Na      -12.1559463473        2.7171654680        1.4831747618
