117

 C        -2.4725934878        6.9147380671       -1.8409181734
 C        -3.0801772453        6.0597777439       -0.7124451540
 O        -2.6701324496        6.2244197413        0.4263367725
 C        -4.1361388910        4.9045349032       -0.9427497823
 C        -5.5846227296        5.4201323672       -1.2072265447
 O        -6.5415847761        4.7325438740       -0.9519940803
 C        -5.8425569774        6.6963373232       -1.9383671140
 C        -6.4540102817        6.4720141300       -3.3130166659
 C        -7.6875112254        7.4716950039       -3.4886057816
 O        -7.6911356518        8.4727340492       -2.8195935038
 C        -8.8352382072        7.1278572000       -4.5018029466
 C       -10.2018727328        6.9252210648       -3.6619581355
 O       -10.5685350293        5.8347282841       -3.2741711109
 C       -10.9418896378        8.2414329169       -3.1652505262
 C       -11.5415765899        8.1516481858       -1.7618352619
 C       -12.7345239855        7.2615397395       -1.5823773567
 O       -13.3079975082        6.7123255004       -2.4890474429
 C       -13.2949389859        6.9781403522       -0.0887622431
 C       -13.1010481563        5.4161028292        0.1783221487
 O       -12.4636953066        5.0046782737        1.0854781827
 C       -13.7597006916        4.3932340897       -0.8686282725
 C       -12.8384071327        3.5116565922       -1.7600869008
 C       -12.2350161207        2.2527789083       -1.2257665440
 O       -12.7233681531        1.6336321336       -0.2895412495
 C       -10.9181740776        1.7900004682       -1.8999627698
 C        -9.8149044491        2.2771802990       -0.8578739381
 O       -10.0422393358        3.0140356783        0.1044669417
 C        -8.3658868015        1.7370660733       -1.2168142305
 C        -7.4681565215        1.4523852731       -0.0017973497
 C        -7.9524642230        0.2922954306        0.8620903643
 O        -8.0481858906       -0.8361870811        0.3935813733
 C        -8.0810039306        0.5591170197        2.3847451038
 C        -9.6320725119        0.5793726113        2.6955778162
 O       -10.2349798331        1.6566984409        2.5848841379
 C       -10.3473018997       -0.7570460209        2.8731500090
 C       -11.8476890695       -0.5816184287        2.7282276531
 C       -12.4944922535       -0.0553107168        4.0402082899
 O       -11.8365495379        0.1133227865        5.0167817032
 C       -14.1819786962        0.3743264050        3.9044635793
 C       -14.1239622662        1.9052331862        4.2043401315
 O       -13.6590057969        2.6847798281        3.3867769305
 C       -14.9539635527        2.4817070822        5.3861876855
 C       -14.5817683635        0.0710185320        2.4615538357
 C       -14.8411842510       -0.5329864291        4.9299714564
 C        -7.4144353018       -0.6842046293        3.1366612897
 C        -7.4678689734        1.8370394313        2.8904316943
 C       -11.0021488609        0.1999248083       -2.0118500260
 C       -10.7068641398        2.3896322860       -3.2327297028
 C       -12.6185850282        7.7954439977        1.0034305633
 C       -14.8771971009        7.2359615430       -0.2494639256
 C        -9.0042418168        8.2822875647       -5.5605285297
 C        -8.6514143946        5.7296715849       -5.1873295010
 C        -3.6581542805        4.0990265415       -2.1686314121
 C        -4.2878239346        4.0142771782        0.2994991802
 H        -3.0724988170        7.2973913693       -2.5699575387
 H        -1.7999395066        6.3134641355       -2.4483477383
 H        -1.8814900848        7.6838257268       -1.3178483882
 H        -4.9606616687        7.3478234082       -2.0356080102
 H        -6.5717529777        7.2569426427       -1.3910546345
 H        -6.8875157045        5.4905339085       -3.4791456917
 H        -5.7463395832        6.7235361826       -4.1205779120
 H       -11.7865980773        8.4427762697       -3.8492109520
 H       -10.2712825008        9.0989564738       -3.3428416703
 H       -11.7982484462        9.1771048488       -1.4340515618
 H       -10.7054068064        7.8446487465       -1.1657987567
 H       -14.5019540158        4.9877768303       -1.4198284249
 H       -14.3603135540        3.7682070706       -0.1933502939
 H       -12.0349144253        4.1632005747       -2.1771686564
 H       -13.5387865383        3.1933013503       -2.5592415157
 H        -7.8469605964        2.3283995422       -1.9019958658
 H        -8.5771637739        0.7936108852       -1.7951557579
 H        -7.3917270833        2.4019695572        0.5321852063
 H        -6.4354923919        1.3568959048       -0.3580166442
 H       -10.0692632185       -1.1585225594        3.8640817988
 H       -10.0308414813       -1.4061887078        2.1071950354
 H       -12.2795608161       -1.6022073536        2.6077561300
 H       -12.0550224097        0.0180862883        1.7989034165
 H       -16.0378491542        2.2412262505        5.1875891366
 H       -14.9385960604        3.5787627241        5.3768089538
 H       -14.6274773026        2.1176911108        6.3583673050
 H       -14.2222204688       -0.8642178931        2.1399606941
 H       -14.1239980287        0.8126394155        1.8239952598
 H       -15.7024168055        0.0776742431        2.5206418174
 H       -15.8661252037       -0.2174319485        4.9174330086
 H       -14.4397823243       -0.5050729034        5.9238983826
 H       -14.6711623902       -1.4824710031        4.5111071138
 H        -7.4423350849       -0.4437489567        4.2031926046
 H        -6.3760900120       -0.7204305721        2.8308153905
 H        -7.8398259015       -1.6568888803        2.8984344818
 H        -8.2338764373        2.5899522293        2.7210870034
 H        -6.4989730045        2.1301064436        2.5718697111
 H        -7.4872230170        1.7755265861        4.0038467150
 H       -10.1152171984       -0.1932381115       -2.5360520198
 H       -11.8758948855       -0.0846759697       -2.5135984032
 H       -11.1576612510       -0.1508765931       -1.0093633061
 H       -10.4142692837        3.4846899426       -3.1957679116
 H       -11.5857021969        2.1801231233       -3.8719799522
 H        -9.8902862019        2.0257316989       -3.8149294595
 H       -12.9182168471        7.4005309164        1.9812060970
 H       -12.7856876530        8.8126961754        0.8427059841
 H       -11.5627266909        7.6344950627        0.9548468443
 H       -15.4614667743        6.7327156231        0.5299165171
 H       -15.1928253370        6.8241632918       -1.1485767370
 H       -15.1951738022        8.2459243817       -0.3428824908
 H        -8.9377689382        8.0860352496       -6.5918440714
 H        -8.3167972752        9.1245326144       -5.3196399165
 H        -9.9689901905        8.6796644868       -5.4417911971
 H        -9.4508460803        5.7193613061       -5.9253482093
 H        -8.8597893963        4.9514576203       -4.4458586718
 H        -7.6981665382        5.5535634889       -5.7613930524
 H        -2.6318352951        3.7961552773       -1.9737512108
 H        -3.6757412396        4.7683564503       -3.0515479233
 H        -4.2086814411        3.1502692317       -2.3529133890
 H        -4.4519047128        2.9823138908       -0.0412136352
 H        -5.1821863532        4.3480401957        0.8417961054
 H        -3.4447820600        4.0597056708        0.9435691621
 Na      -12.0589740449        2.7579123954        1.5702938660
