117

 C        -2.3024207811        6.6063655525       -1.7934831271
 C        -3.0500281658        6.0088871057       -0.6269785116
 O        -2.8106787416        6.3865471474        0.4829766793
 C        -4.0372701067        4.9065439740       -0.9375474054
 C        -5.5223565343        5.3211195504       -1.1835824659
 O        -6.4448818154        4.5672632995       -0.9448249946
 C        -5.8103644359        6.5957074917       -1.9974208001
 C        -6.5667606623        6.3807661262       -3.4150942444
 C        -7.8006545472        7.2780840341       -3.5440012435
 O        -8.0248995441        8.2871508698       -2.8963798480
 C        -8.8760257166        7.0746518241       -4.6051377900
 C       -10.1329461216        6.9298147679       -3.5334296887
 O       -10.3635188455        5.8444613124       -3.0564606372
 C       -10.9038046635        8.2226090452       -3.1136004254
 C       -11.4925749499        8.0932240965       -1.7020639645
 C       -12.7149254180        7.1692709684       -1.7406628335
 O       -13.1840706379        6.7007659410       -2.7381838528
 C       -13.3952368206        6.8473869481       -0.3047180973
 C       -13.2136815667        5.3467375480        0.0545403367
 O       -12.4854203821        5.0067071395        1.0149825608
 C       -13.8874534246        4.2558615936       -0.7668473402
 C       -12.9196023371        3.7091359189       -1.8338390194
 C       -12.2629895091        2.3929856818       -1.3092271926
 O       -12.7993499720        1.8876506704       -0.3279065586
 C       -10.9251560856        1.7360867418       -1.8298985831
 C        -9.7335915089        2.2641182255       -0.8829328685
 O        -9.9689303804        3.0938780557       -0.0434335311
 C        -8.3568605520        1.6653207803       -1.1703094438
 C        -7.4300121207        1.4900612945        0.0203761148
 C        -7.8041538201        0.2886024572        0.8204922071
 O        -7.9027227473       -0.8364465524        0.3682213229
 C        -8.0261151216        0.4728808637        2.4486760014
 C        -9.6144460066        0.5857494701        2.6495290422
 O       -10.1647546692        1.6456399271        2.7024290613
 C       -10.3898790688       -0.7411188634        2.7240010269
 C       -11.9315319253       -0.5999836635        2.7818004692
 C       -12.5698982653        0.1263141840        3.9990005453
 O       -11.9402488196        0.3837277984        5.0251977255
 C       -14.0921026456        0.5826891083        3.9184889419
 C       -14.2112901933        2.0535387204        4.2798484363
 O       -13.6630629925        2.8242571375        3.5051253216
 C       -15.2078480159        2.4585197955        5.3085634581
 C       -14.8183123976        0.3025126851        2.5770928214
 C       -14.7192233027       -0.3896124350        5.0247435894
 C        -7.6026823644       -0.7709105953        3.2843247864
 C        -7.3884032097        1.7738792980        2.9935354879
 C       -11.0348894658        0.2070752795       -1.8571994554
 C       -10.5190768481        2.3233400417       -3.2156868527
 C       -12.7203853148        7.7612640771        0.8452507696
 C       -14.8770813632        7.2240073205       -0.2652892762
 C        -9.0536176193        8.2911631565       -5.4828376933
 C        -8.7882515132        5.7891487792       -5.5543233419
 C        -3.6773317116        4.1011221400       -2.2435900854
 C        -3.9678134365        3.8657756306        0.2267734250
 H        -2.8442933638        6.5101960600       -2.8265125768
 H        -1.3897305734        6.0437406931       -2.0349208485
 H        -2.0859917924        7.6582565762       -1.6335310466
 H        -4.9661803116        7.2486420654       -2.1643580977
 H        -6.5673698266        7.2301940615       -1.4599301988
 H        -6.9341445677        5.4166437243       -3.7322379389
 H        -5.8894155883        6.7496170426       -4.1616428341
 H       -11.7258902827        8.4378279581       -3.8227237095
 H       -10.1485300367        9.0135187483       -3.2247978733
 H       -11.8431596228        9.0805609253       -1.3786085909
 H       -10.6098593240        7.7989067477       -1.0711498126
 H       -14.7212669821        4.7839175038       -1.1608078064
 H       -14.3117883454        3.5004608947       -0.1303503042
 H       -12.2270627709        4.4558224042       -2.1561789881
 H       -13.5824314066        3.4568383577       -2.6397972590
 H        -7.8618410326        2.3666842540       -1.9089566414
 H        -8.4926097584        0.7729519649       -1.7242747702
 H        -7.3349431445        2.4553702515        0.5425392191
 H        -6.3725123954        1.2996285224       -0.2588560394
 H       -10.0085599415       -1.3256582036        3.5729260790
 H       -10.0634089110       -1.3302098731        1.7936521776
 H       -12.4280846785       -1.5783940696        2.6858635692
 H       -12.2220767762       -0.0369213028        1.8992072289
 H       -16.1748771734        2.2587622405        4.9180515556
 H       -15.2174115621        3.5306987184        5.5209580338
 H       -15.0516932994        1.7782995668        6.1797684762
 H       -14.7875526689       -0.8209844198        2.3618178194
 H       -14.1967352628        0.7615272096        1.7609708735
 H       -15.7613329832        0.7456733371        2.6913417252
 H       -15.7438310999       -0.1030231989        5.1876337182
 H       -14.1575432805       -0.2066907028        5.9447919074
 H       -14.5135250756       -1.4250280991        4.6798729739
 H        -8.1422726091       -0.6724700301        4.2065927166
 H        -6.5489683030       -0.6659358158        3.5679137985
 H        -7.8047335773       -1.7708982320        2.7195701461
 H        -7.6914682610        2.7209242254        2.4859762588
 H        -6.2880278420        1.6042901080        2.8609119092
 H        -7.4729697664        1.8193487074        4.0679668424
 H       -10.2690214152       -0.0505478835       -2.5374082550
 H       -12.0364622001       -0.1141241887       -2.3261815979
 H       -11.0497407166       -0.2914867140       -0.8628696934
 H       -10.4279912536        3.3942678618       -3.2322945326
 H       -11.0021512542        1.8957433344       -4.0798368256
 H        -9.4452320260        2.0855236240       -3.4616874975
 H       -13.1406926904        7.3681755592        1.7138135523
 H       -12.9017536645        8.8220147003        0.6960803387
 H       -11.6310166353        7.6334611538        0.9607117689
 H       -15.1757484721        7.4240181942        0.7345359511
 H       -15.6287943896        6.4283201663       -0.6005765077
 H       -15.1474295360        8.0373567109       -0.9806228982
 H        -8.5757247242        8.1991146135       -6.4966030018
 H        -8.6297181202        9.1819633851       -5.0624405950
 H       -10.1405953517        8.3793414839       -5.8727114599
 H        -9.3904130030        5.9577767966       -6.4547042235
 H        -9.0967593575        4.9182794387       -4.9631168369
 H        -7.7799800535        5.6053610306       -5.8821284034
 H        -2.9019700982        3.3682146997       -2.0615633493
 H        -3.4446735343        4.7204826664       -3.0549310083
 H        -4.5387644140        3.5551268987       -2.5009203602
 H        -4.6943836276        3.0712438893        0.1083142486
 H        -4.0689399572        4.4567391087        1.1368189488
 H        -2.9600810207        3.4388468998        0.2239846096
 Na      -11.9121310694        2.8289493288        1.9155579638
