117

 C        -2.1017113917        6.6003516015       -1.7920509796
 C        -3.0415073207        6.0051823690       -0.6744655299
 O        -3.0302752138        6.4332629857        0.4693237832
 C        -3.9699190549        4.7776872454       -1.0223632939
 C        -5.5086520392        5.2208061951       -1.2949790946
 O        -6.3470420484        4.4828811696       -0.8925373505
 C        -5.8155597419        6.5665039167       -2.0698310585
 C        -6.6820999700        6.3350451764       -3.3622227449
 C        -7.8828466010        7.3118328923       -3.5381310964
 O        -7.9786994238        8.2661492537       -2.8253554434
 C        -9.0467869761        7.0120578976       -4.6799720427
 C       -10.1684849658        6.8410989006       -3.6005135345
 O       -10.2831841018        5.8196032815       -2.9486895036
 C       -10.8485103070        8.1260959239       -3.1171350828
 C       -11.5125368187        7.9772457715       -1.7388061670
 C       -12.7374537767        7.1599860999       -1.7214142299
 O       -13.1941294942        6.6800591532       -2.7112700415
 C       -13.4533725364        6.8371617699       -0.2659339766
 C       -13.2358142392        5.3373176714        0.0636968132
 O       -12.4806507667        4.9747261289        0.9371853158
 C       -13.9166873815        4.2282306383       -0.8886713059
 C       -12.8166957812        3.6974526628       -1.8763049720
 C       -12.1982865685        2.4724866571       -1.2656270057
 O       -12.6792508297        1.8781200554       -0.2984341009
 C       -10.8990652257        1.8439497400       -1.8652440131
 C        -9.7174494182        2.2632159833       -0.8521209481
 O        -9.8639147991        2.9808044985        0.1274982002
 C        -8.3212375473        1.7087567338       -1.1936598436
 C        -7.4617209294        1.5195398971        0.1036957828
 C        -7.7901076830        0.2896285040        0.9307642132
 O        -7.9035676628       -0.8307336277        0.4409775391
 C        -8.0336495994        0.3907896818        2.5602175432
 C        -9.6326090860        0.5975471043        2.6830879482
 O       -10.1031926652        1.7440544907        2.6769294300
 C       -10.4208351756       -0.7090940902        2.6747131151
 C       -11.9072525753       -0.4982071870        2.6682987354
 C       -12.5471217040        0.2182529613        3.9049080908
 O       -11.9048838325        0.4860339277        4.8897451248
 C       -14.0728400036        0.5391288946        3.9441467821
 C       -14.2524819379        2.1321641304        4.2146555400
 O       -13.6530918759        3.0084479483        3.6696505890
 C       -15.2943172168        2.5191589265        5.2720907620
 C       -14.9815611736        0.3458506653        2.6188476874
 C       -14.7462311391       -0.2985529381        5.0996842078
 C        -7.4889331680       -0.8078024565        3.2190488795
 C        -7.4186505640        1.6975540852        3.1866471772
 C       -11.1632072875        0.3080372340       -1.7869546846
 C       -10.6837742078        2.3119328702       -3.2950534411
 C       -12.6268221233        7.6410061421        0.7602242650
 C       -14.9492785618        7.2298941726       -0.4730777305
 C        -9.0941156807        8.3132599224       -5.4956102761
 C        -8.8098138987        5.7809640853       -5.5718600692
 C        -3.6619321986        4.0262665549       -2.3221713189
 C        -3.8850009648        3.7876255232        0.2536885898
 H        -2.5182460386        6.5085683826       -2.7816666981
 H        -1.1733259836        6.0085664843       -1.9243930013
 H        -1.8917805725        7.6913156171       -1.6747858455
 H        -4.8432393236        7.0149869208       -2.3664233746
 H        -6.3328496929        7.3213801192       -1.4626447972
 H        -7.2797278734        5.3655206308       -3.2813874428
 H        -6.0206738055        6.2569596745       -4.2588645648
 H       -11.6526934761        8.4404335217       -3.8487920247
 H       -10.0935511653        8.8944238839       -3.0831336586
 H       -11.7339582792        8.9553657555       -1.4199043151
 H       -10.7052504351        7.5583347940       -1.0816268297
 H       -14.8504286832        4.6434610735       -1.2676698985
 H       -14.2395399388        3.4124074467       -0.2152731552
 H       -12.0170470307        4.4643807026       -2.0949960824
 H       -13.2699900782        3.4344045649       -2.8000820972
 H        -7.8955178880        2.4352405112       -1.9039029887
 H        -8.4395500907        0.7511574510       -1.8290576619
 H        -7.6301684960        2.4202984221        0.7312958186
 H        -6.3970633549        1.5048900166        0.0133496773
 H       -10.1475709171       -1.3191021757        3.5749377689
 H       -10.0236679276       -1.3092902309        1.7824362883
 H       -12.3625234116       -1.4995190105        2.8115681603
 H       -12.2896466911       -0.1688885419        1.7397972000
 H       -16.3193075316        2.3054729019        4.9725514577
 H       -15.2432865367        3.6020035763        5.3014805217
 H       -15.1612709143        1.9784168086        6.2215649029
 H       -14.8542021119       -0.6606052215        2.2721555371
 H       -14.3663967238        0.9318770553        1.9435628424
 H       -15.9637517036        0.7696444658        2.7405465411
 H       -15.7770842237        0.0070645831        5.1665745462
 H       -14.2222552848        0.1032437635        6.0070217613
 H       -14.5230564091       -1.3759417952        4.9759497942
 H        -7.9474762472       -0.9038764719        4.1602731157
 H        -6.4901276208       -0.5526503793        3.4378176622
 H        -7.5771830082       -1.7314514883        2.5587214263
 H        -7.7839946901        2.6230836191        2.7031029299
 H        -6.3397650794        1.6476896232        3.0801545493
 H        -7.5215618389        1.6551434927        4.2972519913
 H       -10.4694267636       -0.2691366786       -2.3522717402
 H       -12.1810630809        0.1147686268       -2.1922606295
 H       -11.2970386481        0.0841544877       -0.7164891224
 H       -10.4570526066        3.3821981242       -3.4482289630
 H       -11.4361871413        1.9446677001       -3.8970524450
 H        -9.8596973979        1.8715864774       -3.7283003334
 H       -13.0492031543        7.5168548623        1.8105515751
 H       -12.6285208073        8.6598588580        0.4073637731
 H       -11.5413373421        7.3107518542        0.8228955901
 H       -15.5278490059        7.3669524066        0.4371762639
 H       -15.4701403073        6.3774553224       -0.9479229310
 H       -15.1570310900        8.0077319346       -1.2514262562
 H        -8.1631274605        8.5418002839       -5.9321253374
 H        -9.1695306734        9.1812181395       -4.7883532307
 H        -9.7312058371        8.3377216486       -6.4047879423
 H        -9.4856051833        5.7708057128       -6.3869304244
 H        -8.7625268539        4.8836919201       -4.9954646604
 H        -7.7896405901        5.9021153693       -5.9708652019
 H        -2.6656286757        3.6032000904       -2.3391678244
 H        -3.8194984300        4.6977938510       -3.1338341817
 H        -4.3925262528        3.2319744582       -2.4521810274
 H        -4.8627457902        3.3420226916        0.5416711921
 H        -3.4805871763        4.4935761086        1.0224654629
 H        -3.2067239426        3.0280467308        0.0892072737
 Na      -11.8978770763        2.9376305916        1.9441445748
