117

 C        -1.7636048101        6.3852280025       -1.2487457805
 C        -3.1380876357        5.9759062416       -0.8773396597
 O        -3.8791151552        6.7716583065       -0.3711891100
 C        -3.7254444709        4.5650847586       -1.2305398783
 C        -5.2805634800        4.7666758457       -1.4159011576
 O        -6.1289441586        4.0405988415       -0.8953588023
 C        -5.7649742596        5.9203634953       -2.3763116786
 C        -7.1836920120        5.8019952249       -2.8061291361
 C        -7.6180996110        7.0750258872       -3.6446835129
 O        -7.1713157518        8.1894732568       -3.4167456398
 C        -8.8547884946        6.8962001399       -4.5809145196
 C       -10.1967122751        6.7568204983       -3.5630502334
 O       -10.5952580065        5.6271288592       -3.3212284887
 C       -10.8542816822        8.0584679691       -3.0513022801
 C       -11.5435146685        7.8246979447       -1.6580528542
 C       -12.8774541388        7.0855968560       -1.7402026964
 O       -13.4045736057        6.7379165358       -2.8040397645
 C       -13.5807674582        6.8525226871       -0.3154048336
 C       -13.3553213033        5.2834653189       -0.0552074551
 O       -12.9053623410        4.9229360805        1.0306893058
 C       -13.9428535823        4.3116195787       -1.0900260263
 C       -12.8841577971        3.5508362515       -1.8765523603
 C       -12.2458368150        2.4357259132       -1.1161627540
 O       -12.7661590459        1.7422852424       -0.2652929628
 C       -10.8156270527        1.8325746405       -1.6293292600
 C        -9.7807823494        2.2188219458       -0.5135462475
 O       -10.1511062316        2.7509168641        0.5177859594
 C        -8.3131318456        2.0034033467       -0.7414978071
 C        -7.4408840266        1.7254193470        0.4794884603
 C        -7.9191733332        0.3727167302        1.1012197033
 O        -8.2519587518       -0.5797595267        0.4638908076
 C        -8.1385952686        0.4798229064        2.6685025377
 C        -9.5956966283        0.8084080554        2.8104446918
 O        -9.9274500390        1.9428421490        3.1151933346
 C       -10.5791912440       -0.3583571351        2.4807725179
 C       -12.1142532916       -0.1590253679        2.5028767402
 C       -12.5446208087        0.6390592788        3.6934296524
 O       -11.7614239372        0.8775501629        4.5970337785
 C       -14.0618669278        0.9500409749        3.8533579835
 C       -14.2397118523        2.4877392991        4.0625459361
 O       -13.4834993722        3.3594670332        3.5453395910
 C       -15.3201844415        3.0062216912        4.9780473688
 C       -14.8300876869        0.6193503082        2.6598130512
 C       -14.4929023013        0.0836081984        5.1454096599
 C        -7.7854333537       -1.0671028349        3.2551971742
 C        -7.2528358018        1.4978198154        3.4237061143
 C       -11.0610532095        0.2896044108       -1.5888620245
 C       -10.2138866252        2.2013216538       -3.0125345724
 C       -13.1150276904        7.6935542405        0.9210831960
 C       -15.1174005916        7.0286596347       -0.5095048567
 C        -8.9122791301        8.1842888476       -5.4294818995
 C        -8.7186144314        5.6334951826       -5.5018916011
 C        -3.1672368212        3.9169752174       -2.5737330608
 C        -3.3881521534        3.5512765439       -0.0793323201
 H        -1.7753243081        6.7288796882       -2.2978675031
 H        -1.0061247250        5.5790634717       -1.0898328072
 H        -1.4483466260        7.3212986100       -0.7938806147
 H        -5.0776076437        5.9291741687       -3.2571364058
 H        -5.4892612381        6.7718120905       -1.7778666891
 H        -7.8110986132        5.6300087504       -1.9033590696
 H        -7.2777801655        4.8682230442       -3.4288746945
 H       -11.6003605145        8.3437292893       -3.7958160641
 H       -10.0279687592        8.7835241982       -2.8324246943
 H       -11.6297897972        8.8200734784       -1.1464030251
 H       -10.8664405305        7.2697924516       -1.0516896761
 H       -14.6371829528        4.8816661490       -1.7419667399
 H       -14.6196812784        3.6948155183       -0.4757914062
 H       -12.1816386043        4.2387806679       -2.3427327296
 H       -13.4040507410        3.1508535932       -2.7534712465
 H        -7.8352685147        2.9447773043       -1.1302039057
 H        -8.1588318435        1.2007200512       -1.5296801264
 H        -7.4498400657        2.5610347096        1.1540415080
 H        -6.4364112598        1.5684926506        0.0746390332
 H       -10.2613608837       -1.2346149514        3.1442674596
 H       -10.2725472772       -0.7495504234        1.5015453104
 H       -12.6473747690       -1.0741303186        2.4306129873
 H       -12.4111889726        0.3157157556        1.5593511190
 H       -16.2475106380        2.3862259778        4.9479585498
 H       -15.4690636373        4.0445265126        4.6983488385
 H       -15.0095909010        2.8447677565        5.9853948998
 H       -14.9021788646       -0.4386686372        2.6296600043
 H       -14.4642039163        1.1765263981        1.8165217664
 H       -15.8639171167        1.0267107288        2.8924224904
 H       -15.6005643388        0.2829774707        5.0967273043
 H       -13.9831695799        0.3469770870        6.0648803480
 H       -14.5681113962       -0.9706261062        4.9146117147
 H        -8.3024512240       -1.3664699206        4.1668557236
 H        -6.7250968931       -1.0892576426        3.4018426637
 H        -8.0457687123       -1.7288668446        2.4411698984
 H        -7.5376485391        2.5024793170        3.0914059487
 H        -6.1980310859        1.3412077436        3.1177245740
 H        -7.4757320258        1.3348013373        4.4969609339
 H       -10.0932746924       -0.3327657509       -1.7233528786
 H       -11.7060066875        0.0543841446       -2.4174739957
 H       -11.4398108471        0.0254769218       -0.6060690518
 H       -10.0998244598        3.2025028869       -3.1069445550
 H       -10.8275822420        1.9456414886       -3.8682969179
 H        -9.2509156780        1.7032359702       -3.0828157124
 H       -13.7949523290        7.4328670788        1.7296186238
 H       -13.4191216468        8.7731881157        0.8489574807
 H       -12.0840830081        7.4987978311        1.1229535053
 H       -15.6456626865        6.3371544461        0.2484637572
 H       -15.5340632415        6.8043136309       -1.4976272551
 H       -15.4410693635        8.0034086707       -0.1447602512
 H        -9.1963683280        9.1327328321       -4.8420347395
 H        -9.6499173221        8.0657043281       -6.1995034107
 H        -8.0323643534        8.4736452222       -5.9780633420
 H        -9.1902763216        5.8588765898       -6.4597958014
 H        -9.2435274896        4.7605171787       -5.0910880171
 H        -7.6699570858        5.3704871169       -5.6145993908
 H        -2.4807025682        3.1606566044       -2.3510528480
 H        -2.6307836081        4.5996539904       -3.2127208573
 H        -3.9937859494        3.5011655405       -3.0975773198
 H        -3.7683937439        3.8814966496        0.8700426947
 H        -2.3465180502        3.3552461335       -0.0556923109
 H        -3.9336874955        2.6213628244       -0.4315975310
 Na      -11.8578537054        2.9997458622        1.9650349534
