117

 C        -1.6275147503        6.3377218739       -1.0695431821
 C        -3.1411430141        5.9926727457       -0.9543440127
 O        -3.9100088943        6.7806562698       -0.4912581877
 C        -3.7058753132        4.5134044182       -1.3402715093
 C        -5.2449907184        4.6437992578       -1.4431520923
 O        -5.9814777141        3.8937308391       -0.8681112742
 C        -5.8039870035        5.7990482664       -2.4008958481
 C        -7.2701909492        5.7695217804       -2.7166563147
 C        -7.6374593513        6.9781663325       -3.6086172508
 O        -6.9417021335        7.9460753405       -3.5199357263
 C        -8.9507630265        6.9191501289       -4.5923759441
 C       -10.1382673866        6.7625342990       -3.6730124674
 O       -10.5911323305        5.6991317673       -3.3496403908
 C       -10.7322671104        8.0161466516       -3.0394318785
 C       -11.4971108176        7.7667501272       -1.7035217226
 C       -12.9064679228        7.1131337827       -1.7698271706
 O       -13.4776595815        6.8855331008       -2.7712167176
 C       -13.6310915053        6.6936025810       -0.3218098934
 C       -13.4244656025        5.2371360255        0.0208179810
 O       -12.8284341223        4.8676164023        1.0524776102
 C       -13.9292397427        4.2800398372       -1.0661383939
 C       -12.7764532313        3.5816775431       -1.8594506532
 C       -12.2402509978        2.3303715452       -1.2158756964
 O       -12.8460317663        1.8161748079       -0.2976025245
 C       -10.8305708205        1.7985730690       -1.5745200207
 C        -9.7620378615        2.2785491829       -0.4519438248
 O       -10.1113634845        2.8344362889        0.5611711690
 C        -8.2898047561        2.0539976485       -0.7652882927
 C        -7.4454545550        1.6936614487        0.4802907350
 C        -7.9459345610        0.4278711948        1.2304950561
 O        -8.2678413389       -0.5323331687        0.5165970217
 C        -8.0752354496        0.4139236729        2.7410435368
 C        -9.6707658335        0.8485445550        2.9232982338
 O        -9.9749485413        1.9796987660        3.1473360028
 C       -10.5513760104       -0.3070045660        2.4181183539
 C       -12.0678067182       -0.1011577061        2.4456980600
 C       -12.5145231178        0.5917003894        3.7684737138
 O       -11.7356986572        0.8705338973        4.6419047271
 C       -14.1689815540        1.0683957676        3.8745210859
 C       -14.2266476981        2.6350070901        4.1733979094
 O       -13.5693871397        3.3927512792        3.4859016361
 C       -15.3846399942        3.1263313938        5.0315697039
 C       -14.8731694778        0.6480182978        2.5845439090
 C       -14.5854454956        0.2922845183        5.1268614697
 C        -7.7631320405       -1.0632636908        3.2470024317
 C        -7.1667458357        1.3667445090        3.4570067901
 C       -10.8738467341        0.2696480589       -1.4899693066
 C       -10.4582884364        2.3129872870       -3.0081446680
 C       -13.1714030879        7.5808781490        0.7954871570
 C       -15.1334782172        6.9185876822       -0.5876078826
 C        -9.0890627203        8.1696285315       -5.4603190119
 C        -8.8387731082        5.6414247740       -5.4650692999
 C        -3.0817142408        3.9655800080       -2.6460888165
 C        -3.3430775747        3.6309548844       -0.1170359237
 H        -1.3357716301        6.8239527590       -2.0405885802
 H        -1.0299034650        5.5050395110       -0.8345377327
 H        -1.3651909981        7.1168084839       -0.4087302945
 H        -5.1993498875        5.8708197084       -3.2877288673
 H        -5.5095283644        6.6524359140       -1.7522099184
 H        -7.8660768701        5.7930193505       -1.7453250295
 H        -7.5350724403        4.7874364544       -3.2071353868
 H       -11.4883538872        8.3712544973       -3.7173138220
 H        -9.9250040937        8.7319980310       -2.7436343673
 H       -11.5982102497        8.7960180622       -1.2841004599
 H       -10.8588276282        7.2992463461       -1.0021906985
 H       -14.5725400260        4.8716130049       -1.7469223300
 H       -14.6582199183        3.5779876946       -0.5592575892
 H       -12.0174357415        4.3093559780       -2.1509772587
 H       -13.2338441542        3.3613040865       -2.8809140515
 H        -7.7954202651        3.0153689573       -1.1599184262
 H        -8.2566838931        1.3280114353       -1.5320360727
 H        -7.4972327245        2.5909113003        1.0962896071
 H        -6.4002323985        1.4371366109        0.2067319145
 H       -10.3246717859       -1.1063538634        3.1305925698
 H       -10.1658496303       -0.7410493735        1.5010237778
 H       -12.5608700837       -1.0616388066        2.3612094556
 H       -12.4473536694        0.4069439819        1.5175290807
 H       -16.2296372875        2.5269559677        4.7287704744
 H       -15.5273535685        4.2126431937        4.9211862953
 H       -15.2867577504        2.7721658364        6.0792475623
 H       -14.7925392788       -0.4513113966        2.4656448267
 H       -14.5530795349        1.3223451106        1.8184408715
 H       -15.8864270585        0.8196948007        2.7623594424
 H       -15.6672569155        0.3069445033        5.1888552208
 H       -14.0290788280        0.6367817964        5.9927867269
 H       -14.4711552019       -0.7870513162        4.9417308577
 H        -8.3910697690       -1.3855981209        3.9955097711
 H        -6.7632729935       -1.0678342271        3.5668533619
 H        -7.8404938031       -1.7805565198        2.3252788857
 H        -7.4448655193        2.3798590743        3.1412890984
 H        -6.1167903847        1.1742139254        3.1296100554
 H        -7.3688175333        1.2323830454        4.4946946095
 H        -9.9111646567       -0.0939887042       -1.5991966905
 H       -11.4646616917       -0.0974986927       -2.3428885784
 H       -11.1861245311       -0.0821786042       -0.5191864624
 H       -10.2047846860        3.3551059177       -3.0086584200
 H       -11.2807230377        2.3204087551       -3.6314007471
 H        -9.6825894058        1.7101977304       -3.3949666338
 H       -13.8377629218        7.4684049745        1.6332840642
 H       -13.4237633686        8.6419890978        0.5619943133
 H       -12.0935745571        7.3632748804        1.0195808442
 H       -15.6963951458        6.5565954695        0.2373311088
 H       -15.5775319985        6.4639901134       -1.5165929694
 H       -15.3229838049        7.9893597355       -0.5156662349
 H        -9.7573420937        8.8556436932       -5.0751024793
 H        -9.2944376091        7.9548932893       -6.4673273839
 H        -8.1577376397        8.7423585410       -5.4891701914
 H        -9.4429223935        5.7406826438       -6.3777127368
 H        -9.2793517054        4.8018895242       -4.9198841929
 H        -7.8212404037        5.4285841119       -5.6932915450
 H        -2.3669332431        3.1804260931       -2.3735389808
 H        -2.4414944831        4.7018930769       -3.1165813835
 H        -3.7964905937        3.5572472287       -3.3220634500
 H        -3.3776094606        4.2863482888        0.7299254263
 H        -2.3805618925        3.1343935038       -0.1937405476
 H        -4.1532981247        2.8744306957       -0.0369161494
 Na      -11.8748359789        3.0176210307        1.9132582844
