117

 C        -1.4992728252        6.1709329752       -0.5491065300
 C        -2.9703364319        6.0059685559       -0.8851486584
 O        -3.6398893555        7.0335553475       -1.0548637827
 C        -3.5371374318        4.6370499587       -1.3614887019
 C        -5.0740893734        4.5755985508       -1.6278524153
 O        -5.7721037327        3.7386542534       -1.1166475187
 C        -5.6137866833        5.5060575552       -2.7380706592
 C        -7.0986952803        5.5952209626       -2.7447277716
 C        -7.5342337700        6.5766381226       -3.8438134358
 O        -6.6701763399        7.3354404731       -4.1915527924
 C        -9.0416390572        6.6639223488       -4.4882897758
 C       -10.1030387734        6.4993236136       -3.3934268174
 O       -10.4278770364        5.4082305536       -2.9872426851
 C       -10.6868182543        7.8090051286       -2.7583133177
 C       -11.5031765223        7.5826611566       -1.4757297959
 C       -12.9968994939        7.2794121973       -1.6419276362
 O       -13.5378431656        7.2843577169       -2.7218031073
 C       -13.8114871626        6.8279110446       -0.4389960349
 C       -13.3861096017        5.3496606101       -0.2589112321
 O       -12.5774405428        5.0944336053        0.6247876169
 C       -13.8981005086        4.1567868001       -1.1406014714
 C       -12.8290087504        3.2800127414       -1.8773056065
 C       -12.0640773532        2.2460458926       -1.0890799727
 O       -12.5173381814        1.8349740626       -0.0373356397
 C       -10.7058803256        1.6978236341       -1.5142896705
 C        -9.6553578806        2.3589129702       -0.5335919772
 O       -10.0194675723        3.2513478493        0.2119998537
 C        -8.2156961972        2.0300545454       -0.7405850006
 C        -7.5214777396        1.8502763714        0.6381037334
 C        -8.0166744959        0.5175692301        1.2524524547
 O        -8.1345644694       -0.4832320641        0.5249873550
 C        -8.1818542255        0.3894996510        2.7895482752
 C        -9.7702085614        0.7965505605        2.8510753915
 O       -10.0237626653        1.9700939121        2.6520385149
 C       -10.7382150497       -0.3390238885        3.1137157571
 C       -12.2254740387       -0.0906237783        2.8628105310
 C       -12.8336792784        0.6944940052        4.0781738560
 O       -12.2004060540        0.7929525065        5.1001332060
 C       -14.3096258763        1.2660349782        3.9927591153
 C       -14.3572000136        2.8342249784        4.1244444809
 O       -13.6110388206        3.4210589947        3.4180180521
 C       -15.2703119749        3.4900067488        5.1319994157
 C       -15.0641396113        0.9527848298        2.5133512715
 C       -15.1178223749        0.5024855372        5.1280386579
 C        -7.8070299905       -1.0076391346        3.1840365536
 C        -7.3529134112        1.4999112434        3.5760790142
 C       -10.7804006313        0.1649526467       -1.3835657645
 C       -10.2802641747        2.0625020630       -2.9801506534
 C       -13.4858976288        7.6928942760        0.8409463084
 C       -15.2902222363        7.1261000854       -0.6903936613
 C        -9.2286089894        7.9962345940       -5.2848868166
 C        -9.2093518884        5.5033908279       -5.4323872939
 C        -2.8996518045        4.3729466287       -2.7597766154
 C        -3.2199486856        3.4297070124       -0.4037835647
 H        -0.9305262915        6.7417743870       -1.3489087206
 H        -0.9526906186        5.2712259160       -0.2880426826
 H        -1.3602870884        6.7490107451        0.3860476706
 H        -5.2458642244        5.1505890571       -3.6803324781
 H        -5.2533013402        6.5509102011       -2.5957285808
 H        -7.5849332018        5.8934995524       -1.7829731419
 H        -7.6070029919        4.6569102815       -3.0542860340
 H       -11.3985707729        8.2693934471       -3.4296314716
 H        -9.7509009966        8.3632266814       -2.4617545654
 H       -11.5208157556        8.5278377869       -0.8817053578
 H       -11.0184015988        6.9145836901       -0.7949293163
 H       -14.6418677410        4.5988815955       -1.8278760193
 H       -14.4754325728        3.4114869681       -0.5299169782
 H       -12.2260529225        3.8734903131       -2.5160618050
 H       -13.4339423949        2.6777646141       -2.6041922832
 H        -7.7185492273        2.9693273166       -1.2298276203
 H        -8.0520029324        1.1759425893       -1.3615093796
 H        -7.7849431563        2.5830968289        1.3743244732
 H        -6.4548405793        1.7639905079        0.4276928144
 H       -10.6813203580       -0.6012893037        4.2038239606
 H       -10.4362406643       -1.2902458899        2.5902491206
 H       -12.6266926765       -1.0673062416        2.7273974515
 H       -12.4303483227        0.4790384116        1.9365145078
 H       -16.2669779954        3.1417418747        5.0052386496
 H       -15.1735093581        4.5775970336        5.1093495815
 H       -14.9740477266        3.1355166973        6.1507560559
 H       -15.1803013781       -0.1835224924        2.4186851277
 H       -14.3214351924        1.3215853905        1.7754375019
 H       -16.0336634451        1.3622128776        2.3925363134
 H       -16.1536026253        0.8573942847        5.2331088714
 H       -14.5204058012        0.6215492193        6.0660137002
 H       -15.0400712970       -0.6069946309        4.9384977990
 H        -7.8341307404       -1.0861026644        4.2474132400
 H        -6.8395051491       -1.2839095972        2.7886698337
 H        -8.4918382961       -1.7133873743        2.7367118381
 H        -7.8439157438        2.4777294102        3.4489826926
 H        -6.2641384458        1.4192590102        3.3299825121
 H        -7.5643795200        1.2837969695        4.6138258394
 H        -9.9292590748       -0.3449341117       -1.7382120671
 H       -11.7361099825       -0.1002360943       -1.9579135077
 H       -10.8966740419       -0.1928686338       -0.3216273904
 H       -10.5821599940        3.1181371362       -3.2364432209
 H       -10.7800709641        1.4441488115       -3.6756834958
 H        -9.2441620727        1.9177735007       -3.0863857909
 H       -14.0365045401        7.3587786144        1.7115972260
 H       -13.6422436304        8.7372339312        0.5591368653
 H       -12.4070754977        7.5671505166        1.1519539520
 H       -15.9320351625        6.7725879068        0.0894448221
 H       -15.5648790156        6.5979907091       -1.6669048037
 H       -15.4463831633        8.2300519165       -0.8613790084
 H        -9.3958167672        7.7571168534       -6.2908355472
 H        -8.2026214401        8.4710204547       -5.2414295409
 H       -10.0169239161        8.6950160991       -5.0168355718
 H       -10.2701899085        5.4033419763       -5.7222500500
 H        -8.9933886033        4.5393286730       -4.9735301699
 H        -8.6682807436        5.6927524009       -6.3460536003
 H        -1.8483138132        4.6581310443       -2.7236409484
 H        -3.3303655606        4.9815675730       -3.5103937216
 H        -2.9180706170        3.3507506086       -3.0169310015
 H        -3.6856388034        3.6351325833        0.5518107192
 H        -2.1472319573        3.2394530371       -0.2519714373
 H        -3.6876104852        2.5758945727       -0.8670770845
 Na      -11.8551471633        3.1380125990        1.7819576127
