117

 C        -1.7229644556        6.1339223873       -0.1206025266
 C        -2.9111377029        5.9718409760       -1.0346386937
 O        -3.6400333865        6.9378298701       -1.2808783273
 C        -3.3075183270        4.5433268100       -1.6235725887
 C        -4.8469443100        4.6163254476       -1.8805129667
 O        -5.5749025743        4.0514959884       -1.1228415033
 C        -5.3309976816        5.5786071729       -2.9994334817
 C        -6.9087644164        5.5070021625       -3.0474766554
 C        -7.4917786340        6.4882927572       -4.1129713988
 O        -6.8560182872        7.2565432303       -4.7764351546
 C        -9.1709756478        6.4086882146       -4.4837643088
 C        -9.9244084997        6.4033683565       -3.1479564773
 O       -10.0975685956        5.3899869598       -2.5049961908
 C       -10.4729958235        7.7664787596       -2.6098949134
 C       -11.3154261960        7.4450570947       -1.3336708029
 C       -12.8685926730        7.3617025807       -1.6975759140
 O       -13.3523804613        7.5882545576       -2.7720425045
 C       -13.8517284160        6.7236730141       -0.4918129783
 C       -13.3816634873        5.2945723276       -0.2543739344
 O       -12.4536807718        5.1312265474        0.5582863608
 C       -13.8925702918        4.1723962763       -1.1662609843
 C       -12.6535205032        3.5961974746       -1.8701092882
 C       -12.0946953951        2.4338654121       -1.0927646265
 O       -12.6759205976        1.8752180094       -0.1664783030
 C       -10.7913762322        1.8443820859       -1.5424840213
 C        -9.6534883792        2.5485630008       -0.7076714893
 O        -9.9558561341        3.3775395004        0.1145215436
 C        -8.1783343650        2.0467470165       -0.8124793044
 C        -7.5897550620        1.8407112295        0.6408337239
 C        -7.9947692186        0.4880089389        1.2938571295
 O        -8.0496883737       -0.4989621917        0.5455258635
 C        -8.3853715634        0.4350344557        2.8376223446
 C        -9.9562824392        0.6168058975        3.0019219203
 O       -10.3681551952        1.6786045736        2.6153761315
 C       -10.8514423762       -0.4270572821        3.5480272483
 C       -12.3244194973       -0.1184943159        3.3364145574
 C       -13.0019232096        0.7335342770        4.3992990747
 O       -12.5371174685        0.9519247325        5.4703427945
 C       -14.4957127771        1.3566997870        3.9310878450
 C       -14.2599650276        2.8899259453        4.0976719835
 O       -13.4572960221        3.4119922197        3.3432135474
 C       -14.8949254936        3.6779001563        5.1858951447
 C       -14.9037642712        0.9627851294        2.4539828701
 C       -15.4872813721        0.7639832858        4.9844203587
 C        -7.9360164508       -0.9293746078        3.4619634960
 C        -7.6870815302        1.5797612074        3.6236508836
 C       -10.8145594715        0.3539018177       -1.0955446446
 C       -10.6532584157        1.9414425708       -3.1125280355
 C       -13.7626619047        7.5857634166        0.7838961222
 C       -15.3566057553        6.6663377897       -0.8632666919
 C        -9.5163791868        7.7189398788       -5.2950591779
 C        -9.3256176984        5.1216879199       -5.2839955222
 C        -2.4192624394        4.3195739171       -2.8701695302
 C        -2.9708214297        3.3969238898       -0.6263043325
 H        -1.0028382366        6.8741902249       -0.5758897801
 H        -1.0647579813        5.3279370973        0.0641250642
 H        -2.0027689626        6.4576421141        0.8386870375
 H        -4.8598952085        5.3882224558       -3.9854516369
 H        -5.0123785627        6.5575694506       -2.6412098219
 H        -7.4952502151        5.6641094182       -2.1803657581
 H        -7.1432294836        4.5385551197       -3.4118639820
 H       -11.1998204670        8.1459251845       -3.3062500228
 H        -9.6342510034        8.4616334915       -2.3609536467
 H       -11.1903049848        8.2639170723       -0.5362240490
 H       -11.0338583618        6.5635568910       -0.7778383630
 H       -14.6683083776        4.5268583141       -1.8333984127
 H       -14.2809190982        3.4100231083       -0.5133765585
 H       -11.9920821716        4.3980931784       -2.1480981921
 H       -13.0130480610        3.1920503779       -2.8270800302
 H        -7.5535541485        2.8525023802       -1.2080028658
 H        -8.1335043142        1.2235446316       -1.4870061870
 H        -7.9792659199        2.6498445749        1.2616019207
 H        -6.4872911069        1.7912697256        0.6069170518
 H       -10.6679449709       -0.4254496472        4.6503835682
 H       -10.5836545808       -1.3863757620        3.1416191732
 H       -12.8899179724       -1.0329082556        3.3349669661
 H       -12.3880656534        0.3994546918        2.3414408106
 H       -15.9569740483        3.4544873750        5.1659623622
 H       -14.6987288873        4.7605178772        5.1611127021
 H       -14.4631293466        3.4113019416        6.1625578250
 H       -14.8131877407       -0.1560057485        2.4056503444
 H       -14.2876555093        1.3327276508        1.6441157219
 H       -15.9371584479        1.2494904706        2.3770360467
 H       -16.4006047086        1.2634020436        4.6750509173
 H       -15.3775817925        0.9671132403        6.0165275606
 H       -15.5453779843       -0.2867418578        4.8048542338
 H        -8.4981102701       -1.2726800615        4.3405688951
 H        -6.8572050274       -0.9728116136        3.7300413214
 H        -8.0360001430       -1.7037543707        2.6348308474
 H        -8.1338105185        2.4867591773        3.2671329721
 H        -6.6110893385        1.4529775738        3.4348078234
 H        -7.8239803230        1.4881085775        4.6703874868
 H        -9.8612326353       -0.0666084737       -1.0793135843
 H       -11.4186051924       -0.2682732030       -1.7949981393
 H       -11.3222711020        0.2066376787       -0.1365290096
 H       -10.1092480687        2.9065798289       -3.3111165370
 H       -11.6395483433        1.7958849188       -3.6042745542
 H       -10.0091493718        1.1278939048       -3.5495941238
 H       -14.4151289696        7.1713637069        1.4700821306
 H       -13.8864637880        8.6301632650        0.5269054025
 H       -12.7967113445        7.5089456619        1.2562434745
 H       -15.7464549961        5.8570951023       -0.3281961341
 H       -15.6126070822        6.5671231234       -1.9271533292
 H       -15.8093676702        7.5644512445       -0.5427206939
 H        -8.6768713744        7.9893452669       -5.9184030101
 H        -9.7525336062        8.6035331164       -4.6290949464
 H       -10.4439822007        7.3934736846       -5.8681948686
 H       -10.1137042474        5.1803499240       -6.0514197527
 H        -9.4640358248        4.2485196362       -4.6285342194
 H        -8.4473111869        4.9657380029       -5.8718731770
 H        -1.4024951396        3.9942840075       -2.5610747506
 H        -2.4171994222        5.1863155590       -3.5764848026
 H        -2.8147727818        3.4815008760       -3.4748244628
 H        -3.6595138355        3.4232672070        0.1896235802
 H        -1.9694962134        3.5095980520       -0.2598188738
 H        -3.0721299837        2.3873024985       -1.1350219441
 Na      -11.7947218515        3.2793793924        1.7363441746
