117

 C        -1.7197523867        6.1874281761       -0.0216045625
 C        -2.8686989157        5.9906434946       -0.9429760083
 O        -3.5435233712        6.9549809332       -1.3255487183
 C        -3.2230950374        4.5783214736       -1.6071474534
 C        -4.7674689333        4.7376100888       -1.9338826339
 O        -5.5830205661        4.0946362076       -1.2829123256
 C        -5.2865232127        5.4903334936       -3.1977635832
 C        -6.8245398712        5.4400498447       -3.2270149750
 C        -7.4969510898        6.4246439920       -4.2329029247
 O        -6.8160474531        7.2118299821       -4.8389660931
 C        -9.0711758214        6.3750791464       -4.4063228776
 C        -9.8605378297        6.3984075133       -3.0057771132
 O        -9.9642976663        5.3271169887       -2.4332218112
 C       -10.5701436241        7.6991638811       -2.5375939161
 C       -11.4310269643        7.4263834517       -1.2581790221
 C       -12.8874952676        7.3594521619       -1.6050139570
 O       -13.2729277538        7.6518039504       -2.7377819402
 C       -13.8779859128        6.8084007792       -0.5087628648
 C       -13.3108774787        5.3155420412       -0.2752325485
 O       -12.4725966557        5.0706529246        0.5767954341
 C       -13.8461022340        4.1786473634       -1.1719444707
 C       -12.5590562840        3.6218937825       -1.8296872836
 C       -12.1140780102        2.3847796908       -1.0789772083
 O       -12.7857505653        1.9565608258       -0.1553854473
 C       -10.7227991595        1.7878324408       -1.4965407905
 C        -9.6023447570        2.5421398122       -0.6922339231
 O        -9.9349952909        3.4145776982        0.1101889348
 C        -8.1675988704        2.0902559380       -0.7141254187
 C        -7.6361705456        1.8975348588        0.6685013131
 C        -8.0704039649        0.5219179170        1.2648728338
 O        -8.1105208243       -0.5717036829        0.6911874855
 C        -8.4314438219        0.4376142289        2.8289603739
 C        -9.9938833912        0.6196585452        2.9752819510
 O       -10.4054301058        1.7010261568        2.5867653569
 C       -10.9225193378       -0.3871843854        3.7408556105
 C       -12.3621396580       -0.1707136765        3.3844145134
 C       -13.1117718847        0.7328659124        4.3815158187
 O       -12.6962313946        0.9477226861        5.5286677818
 C       -14.4577692110        1.3538692699        3.9903353251
 C       -14.1738902587        2.9454139797        4.0347645789
 O       -13.4520718657        3.4956580497        3.2748559713
 C       -14.7654662479        3.7199076949        5.1864734713
 C       -14.7534781721        1.0318773870        2.5433422184
 C       -15.4932713025        0.8208478619        4.9457716072
 C        -7.9200540269       -0.9573124482        3.4122460394
 C        -7.8690103752        1.6228637550        3.6411832306
 C       -10.8816580463        0.2853016052       -1.1022139081
 C       -10.6302273321        1.8808321709       -3.0425278320
 C       -13.7944442404        7.6573134355        0.7510634523
 C       -15.3268655915        6.8015978908       -1.1224888426
 C        -9.5597965129        7.5017693871       -5.4087212782
 C        -9.3850029388        5.0455554490       -5.1582347767
 C        -2.4909016828        4.4295937433       -2.9769019765
 C        -3.0284187473        3.3230108040       -0.6987007835
 H        -1.1559134878        7.0894905369       -0.2027269492
 H        -0.8991536500        5.4517728150       -0.0045281456
 H        -2.1079431029        6.1890253608        1.0436959013
 H        -4.7975258649        5.0523836417       -4.0390958594
 H        -4.9728613564        6.5490319948       -3.0814272612
 H        -7.2929217652        5.7066103827       -2.2805306223
 H        -7.1068114852        4.4434412066       -3.4735802170
 H       -11.2287335132        8.0784112126       -3.3168964167
 H        -9.7657830755        8.4177681523       -2.1988673119
 H       -11.2779203439        8.1850078578       -0.4458462570
 H       -11.1806344015        6.5118594199       -0.7126854311
 H       -14.5788168425        4.5363280609       -1.8701541873
 H       -14.2474682419        3.4321063440       -0.4802682416
 H       -11.8290516532        4.3686969915       -1.8472094174
 H       -12.8116825999        3.4560914719       -2.8745449322
 H        -7.5749670261        2.9101915927       -1.2479221063
 H        -8.1552624042        1.2451744922       -1.3453388191
 H        -8.0749140734        2.6393035331        1.3028644116
 H        -6.5573135541        1.8435437377        0.7872591483
 H       -10.7231400628       -0.1773909271        4.8224682008
 H       -10.6087235133       -1.4414129979        3.4674765285
 H       -12.9364030125       -1.0599977083        3.4820025326
 H       -12.2904902156        0.1712962190        2.3498621857
 H       -15.8246847353        3.7066713267        5.1803961396
 H       -14.4185916949        4.7506056413        5.2148316184
 H       -14.3449679633        3.3693880804        6.1547277046
 H       -14.7830540951       -0.0837937946        2.4066137205
 H       -13.9910535931        1.3748390362        1.7901249459
 H       -15.7034218457        1.4958865748        2.3754717664
 H       -16.3184138555        1.3830760007        4.6440367425
 H       -15.4380641030        0.9824096298        6.0288016266
 H       -15.6368964119       -0.2404350090        4.7080332392
 H        -8.2873128990       -1.1738044000        4.4694336881
 H        -6.7881318871       -0.9157863790        3.5047858686
 H        -8.1236910566       -1.7448799261        2.8300881873
 H        -8.5015717495        2.4274881983        3.2616559718
 H        -6.8128888622        1.7416128794        3.4780153252
 H        -7.9684816497        1.4696700538        4.7024208059
 H       -10.0217253281       -0.3516997795       -1.3132195242
 H       -11.7102678136       -0.1963123903       -1.6888242135
 H       -11.2578317614        0.1830842572       -0.0568199624
 H       -10.4046886674        2.9932327850       -3.3065373267
 H       -11.4851389782        1.3421524927       -3.4883676544
 H        -9.7410696168        1.3663231169       -3.4233795309
 H       -14.4008406028        7.1545429130        1.4603028385
 H       -14.0177790235        8.6442379134        0.5654932394
 H       -12.7943991363        7.6612629640        1.1625599475
 H       -15.8392505958        5.9775903553       -0.7331362618
 H       -15.3351691904        6.7630747583       -2.2059022889
 H       -15.8029411042        7.7599816641       -0.8883533054
 H        -8.6700852733        7.9158502308       -5.9389258440
 H       -10.0282424371        8.3692609494       -4.8090209737
 H       -10.3052334829        7.0314255757       -6.0371784544
 H       -10.3403918227        5.2128140685       -5.6620683300
 H        -9.4020581268        4.1558311589       -4.5122197866
 H        -8.7007032315        4.8417954986       -5.9977461789
 H        -1.4500847977        4.0255840043       -2.8024974777
 H        -2.5124589012        5.3297783864       -3.5895736877
 H        -2.9958678659        3.6734096358       -3.6058510200
 H        -3.5159443684        3.5118507334        0.2706918900
 H        -1.9595086745        3.0394048751       -0.5434991127
 H        -3.5585245304        2.5249947530       -1.1285337724
 Na      -11.7945996652        3.1427076531        1.7003437723
