117

 C        -1.7242702673        6.1213107304        0.0859944226
 C        -2.8256002875        6.0386262886       -0.9709394731
 O        -3.3823991993        7.0141582444       -1.3141869903
 C        -3.3014926322        4.6353003761       -1.7084604740
 C        -4.7995432486        4.6738399777       -2.0968984002
 O        -5.6272483499        4.1090076847       -1.3614713466
 C        -5.3293141548        5.3939456518       -3.3551057789
 C        -6.7866631825        5.3756340646       -3.3656771045
 C        -7.4518788758        6.4369070063       -4.2746114922
 O        -6.7968511932        7.1990856131       -4.9396517170
 C        -9.1397026077        6.3312969145       -4.3980042414
 C        -9.8504408494        6.3330423523       -3.0240921433
 O        -9.7974260256        5.2970312193       -2.3439424539
 C       -10.4847591872        7.5589644582       -2.4695659049
 C       -11.3660337875        7.4531560408       -1.1916127828
 C       -12.8446277220        7.3265045383       -1.6217374380
 O       -13.2535204696        7.7161517508       -2.6784389407
 C       -13.9338794950        6.8118360155       -0.5106593703
 C       -13.4583233449        5.3877137727       -0.2108334554
 O       -12.6101178857        5.2552314636        0.6361201067
 C       -13.8113104692        4.3173185960       -1.2337075410
 C       -12.5680228868        3.6152747664       -1.8684836505
 C       -12.1660410302        2.3947872902       -1.0895076809
 O       -12.8267860392        1.9924003262       -0.1284956606
 C       -10.8387287809        1.6474626515       -1.4580641932
 C        -9.6803851754        2.4375023567       -0.6003228061
 O        -9.9259843157        3.4142702171        0.0857277972
 C        -8.1609648435        2.0410672232       -0.6861545660
 C        -7.7148195209        1.7905124318        0.7405315029
 C        -8.1241934066        0.4596483738        1.3817923795
 O        -8.1767720608       -0.4769650986        0.6918049200
 C        -8.4828838018        0.4826012138        2.9301990157
 C        -9.9771305602        0.6278591325        3.0383919640
 O       -10.5126710687        1.6185111853        2.5398145437
 C       -10.8437968181       -0.3280091010        3.8613745376
 C       -12.3467707572       -0.2859321738        3.4754263322
 C       -13.1011891809        0.7001048682        4.4770218106
 O       -12.7108217706        0.8755171410        5.6117081154
 C       -14.5005703036        1.4743744693        3.9110198244
 C       -14.0730748236        2.9874205613        4.0786231022
 O       -13.4567176950        3.5673224921        3.1558217870
 C       -14.6866777711        3.7450851308        5.2810297892
 C       -14.7972790318        1.1362354372        2.4449737806
 C       -15.5777332564        0.9935132160        4.8808555341
 C        -7.9438030240       -0.8602674388        3.3784811279
 C        -7.8924640418        1.6590626276        3.7403880996
 C       -10.7859958497        0.1269987114       -1.0917848896
 C       -10.4444537998        1.8163126814       -2.9204136004
 C       -13.7990744504        7.6727924778        0.7366715395
 C       -15.2640141054        6.9236519784       -1.3013218753
 C        -9.4763645293        7.3964636889       -5.4649217398
 C        -9.4119618546        4.8904372691       -4.9578714871
 C        -2.4965648397        4.5504331868       -2.9990403272
 C        -3.0704125423        3.4545684884       -0.8243990713
 H        -1.3508365433        7.1031650655        0.2462542436
 H        -0.7446262082        5.5858427170       -0.0884826600
 H        -2.1052571627        5.6967878323        1.0661310545
 H        -4.8746815746        4.8041990883       -4.1344599797
 H        -4.9645870422        6.4237417234       -3.3872658732
 H        -7.1843712937        5.5605666746       -2.3231465771
 H        -7.0966104935        4.3463511263       -3.6947315402
 H       -11.1582323048        7.9282831337       -3.2983610280
 H        -9.7237609179        8.2890446090       -2.2149040299
 H       -11.2367320414        8.2406865387       -0.5071736703
 H       -11.1690928836        6.5533030619       -0.5581107737
 H       -14.3398879187        4.8553333812       -2.0359138549
 H       -14.4455052820        3.5338600857       -0.7692226482
 H       -11.7244889801        4.3087951582       -1.9682543532
 H       -12.9226520631        3.4079566843       -2.8557389580
 H        -7.6538562723        2.9145389600       -1.1354964276
 H        -8.0419578575        1.1733011050       -1.4222035586
 H        -7.9857529618        2.6331750793        1.3682092752
 H        -6.6519839955        1.6025053658        0.8508855530
 H       -10.6791646025        0.0318996111        4.8932973436
 H       -10.4275461691       -1.3681239761        3.7395184149
 H       -12.8904990020       -1.2423382989        3.6365260916
 H       -12.3093796423        0.0131762621        2.4728659719
 H       -15.7833803827        3.8234983485        5.1698068505
 H       -14.3250812331        4.7482335381        5.3423859621
 H       -14.3542823382        3.4081979902        6.2323278611
 H       -14.8956053004        0.0708780323        2.3471114974
 H       -14.0303510571        1.4057720620        1.6922059167
 H       -15.7687127654        1.6951933658        2.2616676851
 H       -16.5412334443        1.5266859136        4.8947918907
 H       -15.1775520050        1.1650297984        5.8958480577
 H       -15.6570111805       -0.0882638860        4.7162694978
 H        -7.9696428665       -0.9868621467        4.4349688833
 H        -6.9282026297       -0.8349634545        3.1396935589
 H        -8.3903921575       -1.7809580066        2.9138801740
 H        -8.5019097659        2.5183199370        3.4467671241
 H        -6.8425799823        1.7575745270        3.5653903876
 H        -7.9517832656        1.3908668573        4.8221421505
 H        -9.8680023687       -0.3060387317       -1.6686614187
 H       -11.5922566188       -0.5393620705       -1.3446011587
 H       -10.6817882235       -0.0083061326       -0.0040205926
 H       -10.5166301122        2.7885557325       -3.2539402882
 H       -10.8506301115        0.9948948087       -3.5225094581
 H        -9.3630850873        1.6652478396       -2.9698040625
 H       -14.4431054867        7.1964769237        1.5077122085
 H       -14.0839798448        8.6903733476        0.4990872168
 H       -12.8051593237        7.7435467194        1.1046913310
 H       -16.0599054631        6.2158673138       -0.8951257584
 H       -15.1298695679        6.7393459374       -2.3385095935
 H       -15.5355874320        7.9821211020       -1.2716396674
 H        -8.4820601203        7.5650783971       -5.9743250849
 H        -9.6724071872        8.2777657504       -4.9774915202
 H       -10.2774146537        7.0565345904       -6.0976653320
 H       -10.4838798729        4.7478567132       -4.9512718832
 H        -8.9242319117        4.1792965824       -4.2881776613
 H        -9.0990224474        4.6551403166       -6.0058676257
 H        -1.4767831373        4.3386056711       -2.7399696341
 H        -2.5925322923        5.4613116240       -3.5653361953
 H        -2.8353951853        3.7734550600       -3.6942614719
 H        -3.2287878828        3.6496979356        0.2526741886
 H        -2.0603200017        3.0666120139       -0.9913229000
 H        -3.7833483833        2.7086525222       -1.0722320369
 Na      -11.8514198135        3.0319350781        1.5882084193
