117

 C        -6.0621344514       -4.5695176641        4.8091329352
 C        -6.3111199105       -5.2356445894        3.3859370440
 O        -5.7028727985       -6.1430735521        2.8566055198
 C        -7.3432942261       -4.3596977425        2.4944287859
 C        -8.8537571923       -4.3913738751        2.8262088419
 O        -9.4221437976       -5.2749429051        3.5182360477
 C        -9.6850577987       -3.2016631702        2.3299525992
 C       -11.1250044484       -3.2354144859        2.8094907406
 C       -11.7142179715       -1.8545939495        2.7083114124
 O       -12.1692795981       -1.5460055570        1.6634037634
 C       -11.5154873422       -0.8964492912        3.9271339463
 C       -10.4862750063        0.0993792290        3.4231000884
 O        -9.2946512907       -0.0415856636        3.6919682592
 C       -10.9253191757        1.2679254892        2.3899580607
 C        -9.6169074462        1.8746582433        1.7686276867
 C        -9.8235406382        2.7682957074        0.5928412992
 O        -9.6172527228        3.9621461673        0.7073839874
 C       -10.3520191158        2.1375009906       -0.7662491400
 C       -11.9337148902        2.3887213141       -0.9028162354
 O       -12.6566916861        2.4095354379        0.1001197840
 C       -12.6204347288        2.5460997249       -2.3438840695
 C       -13.4967861754        3.8203688995       -2.4113133122
 C       -12.6892833045        4.9684751450       -2.0060056382
 O       -11.5884698769        4.7852012853       -1.5373963531
 C       -13.1240433211        6.4443884466       -2.3148543068
 C       -11.9575818507        7.3326801110       -2.8017441845
 O       -10.9415655712        7.3899477196       -2.1098401899
 C       -12.0022950046        8.0469468712       -4.1133991478
 C       -10.8084604130        8.9366009863       -4.5304315039
 C       -10.7497900085       10.1964554941       -3.6955851083
 O       -11.7471538750       10.4757499847       -2.9832774043
 C        -9.4280709636       11.0768191852       -3.6053278073
 C        -8.5615554051       10.3508144454       -2.4673948178
 O        -7.5445992900        9.7047630774       -2.6267503530
 C        -8.9349141435       10.6027508761       -0.9855042484
 C        -7.8084671241        9.9699022748       -0.0951205866
 C        -7.8973000889        8.4019572936        0.1510716666
 O        -8.9801621070        7.9643643382        0.4493134980
 C        -6.6698741582        7.5636326392        0.2171653766
 C        -6.5866075072        6.8333140228       -1.2750686356
 O        -7.6047868892        6.3043668995       -1.6015539830
 C        -5.3469653200        6.9535104695       -2.0863767147
 C        -5.2672842857        8.4495601017        0.4530878694
 C        -6.9117396604        6.4968868915        1.2626979124
 C        -8.5409111499       11.1491046053       -4.8187791152
 C       -10.0170927350       12.4712109542       -3.3206023062
 C       -14.2122857798        6.4813334630       -3.4170653028
 C       -13.6381638391        7.0061518541       -1.0092673620
 C        -9.3665232951        2.6530937666       -1.7726846918
 C       -10.1448143205        0.5430957067       -0.7082830122
 C       -12.8973048856       -0.2421681530        4.1273156743
 C       -11.0030474031       -1.5772255548        5.2330277391
 C        -6.7927369385       -2.9102508938        2.4906929075
 C        -7.3409781246       -5.0011095382        1.0277580350
 H        -5.4748841463       -3.6263126811        4.6271046723
 H        -5.4441798382       -5.2431200906        5.4347161961
 H        -6.9979238221       -4.2233116874        5.2569402286
 H        -9.6920372961       -3.3279488825        1.3094070654
 H        -9.2356043246       -2.2177302200        2.7762996376
 H       -11.0866841697       -3.7626593533        3.7954682328
 H       -11.6428528777       -3.9169769473        2.0398313758
 H       -11.5666816690        1.9863860620        2.8876685039
 H       -11.5229341805        0.6945234174        1.6806700359
 H        -8.9776112829        1.0249754775        1.5170990251
 H        -9.0639027008        2.4318231462        2.5421140958
 H       -13.2080788297        1.6471979951       -2.6056285763
 H       -11.8830928310        2.5149480413       -3.2112452524
 H       -14.4288989794        3.7254490811       -1.8019029340
 H       -13.7884896467        3.8288267230       -3.4848815935
 H       -12.8876509629        8.7294176807       -4.0131557645
 H       -12.1974240007        7.3069589884       -4.8779176222
 H       -10.9032315060        9.2388053053       -5.5307885922
 H        -9.9177028208        8.2656181389       -4.2865600346
 H        -9.9059522153       10.1732462289       -0.6652625954
 H        -8.9996809625       11.6554024457       -0.6496227962
 H        -7.8184245096       10.5039857149        0.9191093696
 H        -6.8658865420       10.1674998915       -0.5634618534
 H        -4.9374380606        7.9537318830       -1.9706578012
 H        -5.4770959676        6.6439629430       -3.1939604550
 H        -4.6452989629        6.3203255876       -1.6460900043
 H        -5.3677411251        9.0530050617        1.3514066980
 H        -5.1404657697        9.2144634050       -0.3318005331
 H        -4.3858951620        7.8352051088        0.4913259186
 H        -7.5370763704        6.8752815531        2.0898604371
 H        -6.0033502002        6.1185178150        1.5287606125
 H        -7.5082723062        5.6643060956        0.7864210676
 H        -8.7539796302       11.9133704593       -5.5522801299
 H        -8.4308562174       10.1565930466       -5.3706493881
 H        -7.4989696472       11.4556470454       -4.4747868006
 H        -9.1156417440       13.1222861125       -3.0997507284
 H       -10.6686284820       12.4245326966       -2.4737407668
 H       -10.6250122744       12.6723517023       -4.2809749318
 H       -15.0524766678        5.9085847520       -3.0257909393
 H       -13.8532753271        6.0103135722       -4.2878420119
 H       -14.5611470366        7.5174044894       -3.5250165921
 H       -14.3135313800        6.3374039028       -0.5700954657
 H       -14.1638108305        7.8610588491       -1.2407608088
 H       -12.8686556330        7.2994743868       -0.3705963074
 H        -9.5139446306        2.3762368839       -2.8068378244
 H        -8.4230784391        2.2586861343       -1.5549595514
 H        -9.2369641772        3.7166435128       -1.8299414812
 H       -10.8387150036        0.0954289533        0.0250991067
 H        -9.1464046211        0.3512366852       -0.3423574567
 H       -10.4354609963        0.0471054062       -1.7086489282
 H       -13.6726798855       -0.7830845071        4.6996894998
 H       -13.3434556067       -0.1075462491        3.1703241886
 H       -12.7554347158        0.7223894170        4.6477271563
 H       -11.7444599645       -2.2454584214        5.7333103980
 H       -10.8436022136       -0.8032611969        6.0147843541
 H        -9.9497181602       -1.9136010613        5.2000300788
 H        -6.8245804269       -2.6007764255        3.4887262791
 H        -7.4114944448       -2.2301742879        1.9752853412
 H        -5.7678197216       -2.9797335317        2.3071675480
 H        -8.3348132168       -5.3387280037        0.8135727527
 H        -6.7093528016       -5.8947963618        0.9215603471
 H        -7.1099988927       -4.1968140263        0.3104894785
 Na       -9.7693024368        5.8844772098       -0.4888602391
