117

 C        -2.2614853488        5.9260095512        0.0697628143
 C        -3.0317061968        6.0272303721       -1.2448524406
 O        -3.5000726466        7.0738453947       -1.5640886951
 C        -3.2129066867        4.7599929550       -2.1791691647
 C        -4.6916885130        4.6427421245       -2.3080971007
 O        -5.2873053798        3.7900587463       -1.6358151035
 C        -5.4579098930        5.5923562994       -3.1669179559
 C        -6.7557536882        4.9994599923       -3.7526031901
 C        -7.5428796424        6.0961102922       -4.4999477299
 O        -6.9783155737        7.0563792753       -4.9755851379
 C        -9.0769272306        5.9356101537       -4.6091922509
 C        -9.5654531795        6.1124746419       -3.0704368479
 O        -9.7078033590        5.0752175552       -2.3985320487
 C        -9.7988286616        7.4222680414       -2.3939949086
 C       -10.8382229141        7.4823622613       -1.2558647165
 C       -12.3319991557        7.5235195289       -1.8601347655
 O       -12.4637384535        7.6746369107       -3.0413533470
 C       -13.5232625237        7.1198798355       -0.9373827830
 C       -13.2833189911        5.5613862884       -0.7654467965
 O       -13.1915632312        5.1422572414        0.3632173849
 C       -13.3109375016        4.6992937057       -2.0551334371
 C       -12.1424779336        3.7050158166       -2.0665921912
 C       -12.1741701683        2.3632105025       -1.3232240753
 O       -13.1539979865        1.9112011912       -0.7535544488
 C       -10.7661080565        1.6010591082       -1.2943685605
 C        -9.8671445469        2.2160740343       -0.2327391122
 O       -10.2886417219        3.1063444459        0.4915955546
 C        -8.3524711044        1.9153458962       -0.2699538580
 C        -7.8277798004        1.9027380641        1.1362794841
 C        -8.3530139162        0.6017438000        1.8526291133
 O        -8.3036596995       -0.4049211390        1.2475384378
 C        -8.7465101052        0.6062378451        3.3313602253
 C       -10.2951309179        0.6597513601        3.4086976677
 O       -10.9566430162        1.5782550159        2.9467162550
 C       -11.1147240317       -0.4061726719        4.1553770587
 C       -12.6766695369       -0.3948070044        3.9358471788
 C       -13.2732846157        0.7439588005        4.6922754152
 O       -12.9184462693        0.9432267667        5.8347587212
 C       -14.4194128509        1.6716657191        4.1918380087
 C       -13.8552540689        3.1862899430        4.3757254129
 O       -13.1589938359        3.7027224159        3.5108509489
 C       -13.9885861000        3.7595703513        5.7683290790
 C       -14.7522476984        1.4197270061        2.7355250518
 C       -15.6806836079        1.4774273418        5.1025263309
 C        -8.1899975596       -0.7192177249        3.9509612642
 C        -8.1198680312        1.8217957054        4.1420021346
 C       -11.1371824777        0.1692462805       -0.8504635997
 C        -9.9283503709        1.5249620581       -2.6435926801
 C       -13.6118712764        7.8154884381        0.4248821176
 C       -14.8953717169        7.3151041205       -1.8108545614
 C        -9.7011314487        6.9726487656       -5.5276876758
 C        -9.4333187591        4.5471492379       -5.1414087859
 C        -2.5599073568        5.0932859011       -3.5568558065
 C        -2.6180867980        3.4482795926       -1.6079589963
 H        -2.1947824404        6.8570748062        0.5530864639
 H        -1.3237383747        5.4035251744        0.0944614676
 H        -2.8647109029        5.3835801612        0.7966652838
 H        -4.8357306028        5.9639906960       -3.9966830807
 H        -5.7226130687        6.4657087526       -2.4782986985
 H        -7.3913866789        4.5395660311       -2.9818800189
 H        -6.5848680773        4.2876836836       -4.5603393088
 H       -10.1036085444        8.2074301869       -3.0751807202
 H        -8.8327585100        7.8400225386       -2.0481371944
 H       -10.7557166150        8.3938744537       -0.6409079144
 H       -10.8564961413        6.5700508404       -0.6459138055
 H       -13.2521994645        5.3629945178       -2.9157699040
 H       -14.2733401708        4.1437369143       -2.0636823895
 H       -11.3125554328        4.3145805228       -1.6616367266
 H       -11.8152136474        3.5081403896       -3.1435001278
 H        -7.9329547304        2.6092837514       -0.9711204186
 H        -8.2958034196        0.9804463286       -0.7714308363
 H        -8.0553598368        2.8207267127        1.6869259344
 H        -6.7105506749        1.8715308754        1.2300026505
 H       -10.8198584187       -0.2938846516        5.1683090144
 H       -10.7684768235       -1.3771303453        3.8232111594
 H       -13.0690784517       -1.3296174850        4.4280969173
 H       -12.8171019836       -0.4818340772        2.8535818030
 H       -15.0090157680        4.0145492162        6.0837668585
 H       -13.5285815796        4.7352462962        5.7561077477
 H       -13.4708795720        3.2083618973        6.5503527454
 H       -15.4500347735        0.6325115967        2.7036794920
 H       -14.0056839460        1.2828909958        1.9819932840
 H       -15.3922231645        2.2238265519        2.3224969036
 H       -16.4431477514        2.2173222338        4.8319326724
 H       -15.4904919666        1.4793976351        6.1900222406
 H       -16.2631624805        0.5462179804        4.9091771386
 H        -8.1986083687       -0.6327976155        5.0147347283
 H        -7.1655510415       -0.7672864373        3.7086355576
 H        -8.5851174247       -1.8193122381        3.7230868252
 H        -8.4130864864        2.7780800048        3.6891840901
 H        -7.0691763594        1.7868307793        3.9938011745
 H        -8.5320566814        1.8082979896        5.1785736504
 H       -10.2262760394       -0.4943970661       -0.8167168202
 H       -11.8314239815       -0.3155518861       -1.4401707907
 H       -11.4709659383        0.1611292529        0.1528607133
 H        -9.6363907895        2.4638034489       -2.9423920901
 H       -10.5457322551        1.1695361434       -3.4737725679
 H        -9.1165472849        0.8384663331       -2.4187060798
 H       -14.6661800357        7.8755427657        0.8792014776
 H       -13.3544250333        8.8999161834        0.4089397568
 H       -12.9575149351        7.2446504729        1.0859669433
 H       -15.7085474545        6.7472236897       -1.2641629063
 H       -14.7412774729        6.8706490215       -2.7590555238
 H       -15.2198799049        8.3722880197       -1.8401246877
 H        -9.3787664866        6.6490496829       -6.5526938818
 H        -9.4884750869        7.9519491487       -5.2462155856
 H       -10.7548024808        6.6818961323       -5.4975920000
 H       -10.4905875254        4.3937334522       -5.1749092465
 H        -9.0178835985        3.6849903359       -4.6541545021
 H        -9.0446455226        4.4984156716       -6.1801142329
 H        -1.4937965053        5.1361186219       -3.4741528508
 H        -2.8492302802        6.0221789228       -3.9482527040
 H        -2.7784706009        4.2958514262       -4.2320529027
 H        -2.8682346093        2.5838077252       -2.2398813177
 H        -3.0260425396        3.2107728709       -0.6051118843
 H        -1.5800956683        3.5695237782       -1.5341674479
 Na      -12.5277767698        2.9287548597        1.4399273941
