117

 C        -2.4735116241        5.8302318709        0.0965908295
 C        -3.0362997534        6.0110070551       -1.3336373397
 O        -3.4109085107        7.1532662408       -1.6508218465
 C        -3.0715904594        4.8317707501       -2.3977804016
 C        -4.6389511464        4.4580530467       -2.5525282131
 O        -4.9954533504        3.3415902407       -2.3793108265
 C        -5.6817510292        5.5331535889       -2.9723517969
 C        -6.5190760096        5.0295521303       -4.2655931975
 C        -7.4581294804        6.2082446513       -4.7976606881
 O        -6.8806900128        7.1887079791       -5.1833274588
 C        -9.0875511498        6.0963672909       -4.6913121112
 C        -9.4036628610        6.1358274830       -3.2297441824
 O        -9.4477223324        5.0799918606       -2.6125538858
 C        -9.3711677907        7.5100325004       -2.4445006213
 C       -10.6094624291        7.6206553372       -1.5749632419
 C       -11.8951096226        7.1810354831       -2.3000467575
 O       -12.0250230574        7.2357142478       -3.5058035506
 C       -13.1707111091        6.8824494599       -1.3729389440
 C       -13.1712481658        5.3538213650       -1.0904877269
 O       -12.7800269246        4.9017733555       -0.0135363769
 C       -13.6542165468        4.3695413670       -2.1848600854
 C       -12.5327237776        3.3603086510       -2.5434505276
 C       -12.2607040045        2.4216054335       -1.3652053568
 O       -13.2374131808        2.2211216812       -0.6187334919
 C       -10.9534165640        1.5525982454       -1.2135509313
 C        -9.9977025509        2.1691842336       -0.1069610933
 O       -10.3528024284        3.0361822427        0.6345217433
 C        -8.5283682866        1.7733699555        0.0646016031
 C        -8.1245951916        1.9539105291        1.4963659271
 C        -8.5621151975        0.6907245488        2.3170115170
 O        -8.5911425934       -0.4132956278        1.7368239353
 C        -9.1355242162        0.8181499031        3.8306190407
 C       -10.6890180714        0.6952462017        3.6003828477
 O       -11.2460065453        1.5795617693        2.9765909823
 C       -11.4168366732       -0.6741653040        4.0436260799
 C       -12.8645377579       -0.3035572037        3.8922263747
 C       -13.2346219135        0.7665701060        4.8947359571
 O       -12.7913084914        0.7030959860        6.0211770509
 C       -14.4353115796        1.8036145846        4.6008546333
 C       -13.8066278540        3.1858138666        4.6635270823
 O       -13.4075581255        3.7884156753        3.6578236640
 C       -13.6331725182        3.8734351893        5.9362183896
 C       -15.1631411796        1.5240340449        3.2491363047
 C       -15.4744306057        1.6631665412        5.6832492552
 C        -8.4701344308       -0.3822187990        4.5165256438
 C        -8.7617177792        2.0998798616        4.5622833271
 C       -11.3714569799        0.1669073465       -0.6216331501
 C       -10.1026295296        1.2904080942       -2.4668383905
 C       -12.9015162292        7.6165088786       -0.0552379173
 C       -14.4302202237        7.4552792290       -2.0099047285
 C        -9.6338428903        7.3069340222       -5.5254495936
 C        -9.4815080502        4.7575958390       -5.2535515177
 C        -2.5014056839        5.2360870046       -3.7874932950
 C        -2.2856778198        3.5941639342       -1.8733390261
 H        -2.7372540947        6.6435209919        0.7916637984
 H        -1.4225284485        5.6726831236        0.0747398940
 H        -2.7549827085        4.9332874995        0.5721480502
 H        -5.2707078427        6.5678621585       -3.1405059679
 H        -6.4327182684        5.5892754111       -2.1433222856
 H        -7.0674294731        4.1371591320       -4.0444773764
 H        -5.8438779259        4.7941818302       -5.0922546275
 H        -9.1353898954        8.4453149832       -3.0218058371
 H        -8.6037092689        7.6028399874       -1.7047888643
 H       -10.8501044326        8.6027513348       -1.2566896231
 H       -10.4589771796        6.8881441832       -0.7196961932
 H       -14.0742206680        4.8547404935       -3.0881989029
 H       -14.5116760432        3.8514371246       -1.7680389186
 H       -11.6606342256        3.9303133195       -2.9874705880
 H       -12.8765284897        2.7838329557       -3.4213901380
 H        -8.0108300309        2.4465979809       -0.5360144773
 H        -8.3177919778        0.7566416233       -0.3343218211
 H        -8.5222425853        2.8349452943        2.0594574319
 H        -7.0375606609        2.0823092966        1.4158524157
 H       -11.2221335610       -1.0471758541        5.0271688511
 H       -11.0935988526       -1.4743863534        3.3974894166
 H       -13.5012302675       -1.2247365934        4.0221497854
 H       -13.0588178633       -0.0215380241        2.8663417218
 H       -14.5565755281        4.2105054707        6.4342617356
 H       -12.9767209626        4.7193900899        5.7694250049
 H       -13.2901017480        3.1602152767        6.6610466654
 H       -15.2852998344        0.4796170674        3.0036527949
 H       -14.6159014374        1.8778995243        2.3920553070
 H       -16.1183952364        1.9653313242        3.0972314470
 H       -16.2861730758        2.4482704992        5.5504166932
 H       -15.1199148463        1.8215037613        6.7118628515
 H       -15.9636451294        0.6944875886        5.7688046474
 H        -8.7509092340       -0.6294164889        5.5785322471
 H        -7.3315918496       -0.3619538040        4.4819868186
 H        -8.6797010601       -1.1874524850        3.9494677668
 H        -9.2144719939        2.9953587660        4.1113676978
 H        -7.6462121766        2.1913977568        4.6925046586
 H        -9.1709495180        2.0808068217        5.5971101066
 H       -10.6351217541       -0.3436399698       -0.1304671380
 H       -11.7966252684       -0.4153642951       -1.4520075559
 H       -12.1302654672        0.2129026647        0.1567262810
 H        -9.6177623938        2.2379381680       -2.8537121376
 H       -10.7187410954        0.9055794313       -3.2268854018
 H        -9.3942973291        0.5469346650       -2.2094708675
 H       -13.8019160836        7.5666808366        0.5775125612
 H       -12.6402574728        8.7123113644       -0.2076746832
 H       -12.0931917930        7.2226254019        0.6425781908
 H       -15.2735959469        7.1351148561       -1.3872118360
 H       -14.5666301906        7.0607221998       -3.0734569584
 H       -14.3774023642        8.5454569075       -2.0822263969
 H        -9.5059302150        7.1870085660       -6.5483260393
 H        -8.9678094453        8.1879537327       -5.2497875935
 H       -10.6827350117        7.4564868690       -5.2399918306
 H       -10.5309234948        4.6378887289       -5.5315378041
 H        -9.2821585596        4.0265842892       -4.4521310290
 H        -8.9479478122        4.4006075530       -6.1082580267
 H        -1.4569091280        5.2320859967       -3.8668227080
 H        -2.9193974179        6.2116994306       -4.0195863634
 H        -2.8399693756        4.5146973794       -4.5159979652
 H        -1.4033637053        3.8689874300       -1.3035459231
 H        -1.9465643328        3.0622742474       -2.7037308721
 H        -2.9187392817        2.8708136513       -1.2645924433
 Na      -12.5203123407        3.0856085803        1.6750005342
