117

 C        -2.8087708919        5.7544466164        0.0825242163
 C        -3.1754190304        5.9047116775       -1.3830575522
 O        -3.5017554447        7.0222797294       -1.8307819949
 C        -3.0376097332        4.8134326885       -2.5139671672
 C        -4.5064371988        4.3900566062       -2.8084210379
 O        -4.9200399214        3.3005055760       -2.6255738217
 C        -5.4973268188        5.4652435053       -3.2458353129
 C        -6.2392744877        5.0240025176       -4.5226330847
 C        -7.1619564706        6.1656340781       -4.9253102437
 O        -6.5948753575        7.1788976245       -5.2255127301
 C        -8.7205556129        6.0762158581       -4.9899544497
 C        -9.2454364723        6.1118797555       -3.4223324091
 O        -9.6514772467        5.1094261037       -2.8404298655
 C        -9.3015952496        7.4914661228       -2.6754133264
 C       -10.4284141786        7.7254934726       -1.6626810472
 C       -11.7306145754        7.1313255971       -2.1972015515
 O       -11.7320079704        6.7096521404       -3.3520980379
 C       -13.0353205335        6.9480199803       -1.3355545863
 C       -12.9984783484        5.4515516990       -1.0961963306
 O       -12.7435994655        5.0095845568        0.0096356064
 C       -13.3088648146        4.5833589553       -2.2728597674
 C       -12.4381855372        3.2719257886       -2.2464704854
 C       -12.3665813356        2.2860737546       -1.0911490381
 O       -13.2891276052        2.0209804466       -0.3109826502
 C       -10.9759709049        1.5189987784       -0.9951218606
 C       -10.0265049127        2.2499734522        0.0128347060
 O       -10.5127556280        3.1484246545        0.6289412312
 C        -8.5961183554        1.7579298279        0.1708528342
 C        -8.1065340875        1.7193735281        1.6044116316
 C        -8.7644760053        0.5980425335        2.3973406634
 O        -8.7889035441       -0.5393881127        1.8784452609
 C        -9.2637183754        0.8838670057        3.8838814962
 C       -10.7805763369        0.8168369579        3.6330113858
 O       -11.3480504435        1.7964740191        3.1623726063
 C       -11.5841229025       -0.4354829769        3.9038277313
 C       -13.1229676754       -0.2724240708        3.9264207522
 C       -13.4833729426        0.7599456118        5.0260091475
 O       -12.7028328007        0.9303157379        5.9071348067
 C       -14.6414074095        1.8357756428        4.8774240738
 C       -13.8328185692        3.1942102354        4.8415792665
 O       -13.5534998320        3.6263194056        3.7011527274
 C       -13.2891025592        3.7753637716        6.1660645594
 C       -15.4640193795        1.6812791488        3.5438774232
 C       -15.5651192793        1.6496751601        6.0663006241
 C        -8.7848958623       -0.1532376051        4.9121655178
 C        -9.0076654247        2.2422176261        4.4375522264
 C       -11.1393348007        0.0757527869       -0.5166315920
 C       -10.2216177541        1.4837236779       -2.3951531769
 C       -13.1686845205        7.6506139201       -0.0263498391
 C       -14.3142910652        7.1834495308       -2.2495790353
 C        -9.4380715500        7.3006439802       -5.6583260869
 C        -9.1500876385        4.7703489509       -5.5408991603
 C        -2.5115270477        5.5291154270       -3.7994162855
 C        -2.2201176334        3.5544849203       -2.2654601569
 H        -3.2282426798        6.6777463158        0.6445568647
 H        -1.7295544139        5.7708225740        0.3574558701
 H        -3.1126245920        4.8530389841        0.5534855871
 H        -5.0960155915        6.4648977556       -3.3368964681
 H        -6.2506501249        5.5385790320       -2.4671410788
 H        -6.6972425664        4.0062629240       -4.3788566510
 H        -5.4743770593        4.9007912847       -5.3677293571
 H        -9.2684733511        8.4038498687       -3.2931314696
 H        -8.3368230969        7.5236571826       -2.1786132198
 H       -10.6432627593        8.7690404055       -1.4558444121
 H       -10.2538341657        7.1710312126       -0.7305464248
 H       -13.1793944428        5.1242829227       -3.2247853986
 H       -14.3792627062        4.3486266828       -2.3310294476
 H       -11.4487156677        3.6241691503       -2.5592627939
 H       -12.8061433295        2.7214002334       -3.1452337777
 H        -8.0460775907        2.5151162676       -0.3521944171
 H        -8.5839784503        0.8147991112       -0.4417539188
 H        -8.2286558130        2.6772141345        2.1229842916
 H        -7.0574618414        1.3966145487        1.6864558723
 H       -11.2143017428       -0.7725797836        4.8679714034
 H       -11.3170972051       -1.3022667171        3.2557876420
 H       -13.4960215308       -1.2916008425        4.2459849026
 H       -13.5273284545       -0.2439792674        2.9457469184
 H       -14.1808795447        3.7818102361        6.8499058725
 H       -12.7677315752        4.7257860902        6.0292520256
 H       -12.7883184106        3.0517275511        6.7566096214
 H       -16.2191056056        0.9288012226        3.5449959931
 H       -14.9983630955        1.3220885812        2.6261723473
 H       -16.0293977662        2.6365613561        3.2900599680
 H       -16.1962900496        2.5191853046        6.2817201238
 H       -15.0908893875        1.5571166832        6.9967263906
 H       -16.1581945682        0.7921414549        5.9363220637
 H        -9.3324692311       -0.0532376277        5.8539300059
 H        -7.7461650127        0.0991967330        5.2102544271
 H        -8.7975975484       -1.0944663918        4.6369784501
 H        -9.4685591694        2.9781144376        3.8371501627
 H        -7.9577660049        2.4161709122        4.5274578443
 H        -9.2505018546        2.3515555664        5.4970263768
 H       -10.1644934350       -0.4159870909       -0.4875119138
 H       -11.8309428930       -0.5768314563       -1.1253166299
 H       -11.5387326255       -0.0155867382        0.5421227980
 H        -9.5758996987        2.3803652447       -2.4953374521
 H       -10.8746418750        1.2333045487       -3.2243936799
 H        -9.4564192558        0.6676852948       -2.3629434685
 H       -14.0368855324        8.1812895091        0.1611171537
 H       -12.2592955362        8.1959833264        0.1594072994
 H       -13.0825794895        6.9640909710        0.7555060772
 H       -15.1846781572        6.7436372088       -1.7513259538
 H       -14.2252606969        6.8066343428       -3.2443570638
 H       -14.4671274954        8.2025901759       -2.4062980055
 H        -9.2529581509        7.3248992626       -6.6678764532
 H        -9.0390160363        8.2311030748       -5.2532810027
 H       -10.5101664363        7.1691173017       -5.4118677540
 H       -10.2105506501        4.5995973660       -5.5502316359
 H        -8.6710244249        3.9498932701       -4.9991796362
 H        -8.8747973713        4.6056795079       -6.5924477953
 H        -1.5875884158        6.0568389760       -3.5651780414
 H        -3.2724705905        6.2685116432       -4.1771757604
 H        -2.3798674594        4.7889457506       -4.6359452061
 H        -1.1721493891        3.8427006310       -2.3252160158
 H        -2.4363456012        2.7307397648       -2.9022682343
 H        -2.3595776019        3.1918012362       -1.2159953119
 Na      -12.7309375909        3.1022317402        1.5345383685
