117

 C        -3.2068949922        5.2767581533       -0.0141633082
 C        -3.1341010610        5.8365856790       -1.4228569291
 O        -3.3664671746        6.9865645252       -1.6190197827
 C        -2.8907756914        4.8416036333       -2.6960956605
 C        -4.3209767059        4.3947017180       -3.1036994321
 O        -4.6744474068        3.2042016766       -2.9995230342
 C        -5.4062722527        5.3914585858       -3.5476519911
 C        -6.1731450852        5.0019829793       -4.8900186742
 C        -7.0312949530        6.2671337338       -5.2289622035
 O        -6.5818226822        7.3810094258       -5.1023243576
 C        -8.6535157347        5.9927043679       -5.3019096256
 C        -8.9901298811        5.8965821361       -3.8065706564
 O        -8.9455456942        4.8787096663       -3.1542334813
 C        -9.2037653383        7.1941193951       -3.0627574829
 C       -10.2004776752        6.9932644434       -1.8511857438
 C       -11.6681306090        6.8307806882       -2.4417783723
 O       -11.9001571772        6.6414104937       -3.6036722372
 C       -12.9718448222        6.8840151981       -1.4561066915
 C       -13.1123843059        5.4716839469       -0.7800770008
 O       -12.9952327864        5.3687698217        0.4327249608
 C       -13.4267010470        4.2174380931       -1.6754523695
 C       -12.1473355883        3.3825820925       -1.9596137156
 C       -12.0628251489        2.2111802561       -1.0045759772
 O       -13.0154290165        1.9547952374       -0.2548092530
 C       -10.8290068433        1.2700592703       -0.9110495849
 C        -9.9217997320        1.9910816528        0.2228487114
 O       -10.3778726798        2.7903597856        1.0354354249
 C        -8.3592494073        1.5978613466        0.2602629746
 C        -8.0248945667        1.7358867269        1.7896333144
 C        -8.9017903420        0.6537310566        2.5923380313
 O        -9.1184632313       -0.4060391023        2.1073836515
 C        -9.5696771872        1.0680568025        3.9927809749
 C       -11.0779418496        1.0324345341        3.6802749463
 O       -11.5905724600        2.0734602560        3.3662302812
 C       -11.8746158261       -0.2718937240        3.7024631238
 C       -13.3750733850        0.0345524393        3.8146712852
 C       -13.6332217850        0.8332761228        5.0875691181
 O       -13.0119408861        0.5856422088        6.1289022378
 C       -14.7835573079        1.9410224157        5.1423969209
 C       -14.0170086258        3.3552118141        4.8599430657
 O       -14.0277006030        3.8252867893        3.7578355936
 C       -13.4137709390        4.1269646928        6.0679337038
 C       -15.8731836458        1.8831609322        4.0981414530
 C       -15.3274171886        1.9126023578        6.5138620301
 C        -9.1493441988        0.0230924814        5.0357370648
 C        -9.2455995147        2.4908389236        4.4816709036
 C       -11.2865124849       -0.1164089110       -0.4132752884
 C       -10.0608556701        1.0958064032       -2.1737474071
 C       -12.6924922610        8.0188446767       -0.4122386247
 C       -14.2226366344        7.3053774682       -2.2696819742
 C        -9.4179167081        7.2364019648       -5.9806412184
 C        -8.9480805096        4.6884570663       -6.1299926884
 C        -2.3964815712        5.7510928517       -3.8311603805
 C        -1.8950822277        3.6765792168       -2.5934315998
 H        -3.2074510182        6.0369436405        0.7071041244
 H        -2.3200030871        4.7333592575        0.3581884617
 H        -4.1393697319        4.6052820430        0.0966742321
 H        -5.0156271281        6.4187594017       -3.5690678475
 H        -6.1374282343        5.3872589119       -2.7577067735
 H        -6.8011929280        4.1368702287       -4.5801347500
 H        -5.4535125040        4.5879891105       -5.6577575806
 H        -9.7716047727        7.8664282237       -3.7161248189
 H        -8.2816565186        7.6226944188       -2.7198450147
 H       -10.1774742533        7.9236371964       -1.3158913093
 H        -9.9034940385        6.2366417181       -1.0938513134
 H       -13.9425052730        4.5434381150       -2.5944205258
 H       -14.1534772700        3.5710723159       -1.1668947613
 H       -11.2417433007        4.0601787318       -1.8658299903
 H       -12.1464817803        3.0705676259       -3.0106839851
 H        -7.8150041531        2.3525458027       -0.2922461894
 H        -8.1246768643        0.6037781025       -0.1357994409
 H        -8.1865429730        2.7161453564        2.2858674121
 H        -6.9975814951        1.4084523242        1.9032143184
 H       -11.6401248490       -0.8245889623        4.6219506712
 H       -11.5818414498       -0.9280901487        2.8681214558
 H       -13.9234987658       -0.9295230899        3.9115032834
 H       -13.7660214694        0.5513813407        2.9228090090
 H       -14.1885982627        4.5988311039        6.6694349507
 H       -12.6789541367        4.8543773387        5.6682865470
 H       -12.9377223183        3.4229958784        6.8188679344
 H       -16.5696724526        0.9674802509        4.1485915634
 H       -15.5103645193        1.8512231215        3.0425507445
 H       -16.5843509587        2.6716605836        4.1547115368
 H       -15.7203162109        2.8566205973        6.8003606552
 H       -14.5910031964        1.7141159775        7.2792178577
 H       -16.1049092831        1.1995303900        6.6562122709
 H        -9.7892611651        0.0451433158        5.8443403147
 H        -8.1585001703        0.0410506692        5.3261272998
 H        -9.4117314287       -1.0073805669        4.5459619823
 H        -9.2637416143        3.2910449268        3.7296424577
 H        -8.2334022231        2.5762750761        4.9249298213
 H        -9.9744637345        2.7910238916        5.1887813566
 H       -10.4203879837       -0.8006191288       -0.2482560129
 H       -11.8387774517       -0.7155408326       -1.1530099476
 H       -11.9661759310       -0.0146714372        0.4403587042
 H        -9.7621459069        2.0792714453       -2.5896114778
 H       -10.7433741560        0.5381153349       -2.8722127499
 H        -9.1051940126        0.5468890080       -2.1459387935
 H       -13.2976400808        7.8978683424        0.4510735621
 H       -13.0229547299        8.9147122441       -0.8058404196
 H       -11.6716723128        8.1150965499       -0.0916869245
 H       -15.0739904414        7.3161664767       -1.6855155898
 H       -14.4009231905        6.5434800457       -3.0290744268
 H       -14.1631858926        8.2934696889       -2.7088153938
 H        -9.1866567276        7.2497511950       -7.0661147537
 H        -9.1218009938        8.1467838372       -5.4727819201
 H       -10.4518345501        7.1640196816       -5.8715495096
 H        -9.9857164919        4.5380148284       -6.4823919917
 H        -8.7524761597        3.7769411990       -5.5569804928
 H        -8.2983684949        4.6394891154       -6.9679253022
 H        -1.3461754327        6.0597765307       -3.6794350363
 H        -3.0061175844        6.6529664762       -3.7928700161
 H        -2.5524737462        5.2914050928       -4.8106523427
 H        -2.2709926390        2.7846042938       -3.0911837089
 H        -1.6565126001        3.3950568431       -1.5732086499
 H        -0.9414288834        3.9508173442       -3.0669226633
 Na      -12.8067589138        3.3574345930        1.6095447817
