117

 C        -3.2188611980        5.1657253015       -0.0552661507
 C        -3.1114100767        5.7863011755       -1.4323548147
 O        -3.2298977847        6.9760937243       -1.5641521466
 C        -2.9268375961        4.9685018627       -2.7610694940
 C        -4.4043587321        4.3483841249       -3.1755144286
 O        -4.5904914854        3.1476595194       -3.1115570652
 C        -5.3784987399        5.4188668631       -3.5887268806
 C        -6.1234070308        5.0795067322       -4.9055748316
 C        -7.0315515794        6.2057754188       -5.1646197183
 O        -6.6379883229        7.3642598573       -5.1765971603
 C        -8.5225158191        5.9018280174       -5.3473483339
 C        -8.9702416767        5.7384403265       -3.8532151205
 O        -8.8620600246        4.6633739310       -3.2803208953
 C        -9.2065291889        7.1123209166       -3.0877267415
 C       -10.3153506372        7.0063404688       -1.9746421847
 C       -11.7375539704        6.8250260450       -2.4238435569
 O       -11.9769648998        6.5079849460       -3.5852237311
 C       -12.8966892552        6.9581367632       -1.4070165769
 C       -13.0585232561        5.5592252818       -0.8112472447
 O       -13.0168821065        5.3848365662        0.4057855938
 C       -13.2359408711        4.3010640508       -1.7341700703
 C       -12.0484994558        3.2945050104       -1.8285560452
 C       -12.0986949239        2.1432616060       -0.8241337028
 O       -13.0601875976        1.8638178303       -0.1705297826
 C       -10.7949625591        1.2307152801       -0.8190003833
 C        -9.9018122027        1.9548719439        0.1951496590
 O       -10.3263218430        2.7658067306        1.0165427078
 C        -8.4067142539        1.6042135455        0.3266043148
 C        -8.0605915103        1.7362194244        1.8277448327
 C        -8.9514253314        0.7498901674        2.6329166806
 O        -9.1754503715       -0.3770292853        2.2362869926
 C        -9.5655960027        1.1026477867        4.0347697201
 C       -11.1317646371        1.0830482575        3.7370258094
 O       -11.7150827817        2.1453138314        3.3910054532
 C       -11.9083619660       -0.2672804704        3.6729133782
 C       -13.4571460149        0.1592352084        3.7174634996
 C       -13.7635727014        0.8777301729        5.0971083794
 O       -13.0920294119        0.6167233922        6.0405653158
 C       -14.8025083979        2.0602665741        5.2401600625
 C       -14.0280746596        3.2916024146        4.8203875456
 O       -14.0034539333        3.7209516844        3.6663260022
 C       -13.4801731539        4.1499670141        5.9682342245
 C       -15.8920125990        1.9007886962        4.1928451081
 C       -15.4413565114        2.0339004859        6.6964346492
 C        -9.1435000049        0.0078517754        5.0494519927
 C        -9.1382423838        2.4708352362        4.5012594190
 C       -11.1971648111       -0.2138059674       -0.4269219462
 C       -10.1750498993        1.2771570097       -2.2408415371
 C       -12.6965331354        8.0959699495       -0.3734167092
 C       -14.1904421761        7.2463326451       -2.1995110438
 C        -9.2049360338        7.1259411675       -6.0504746007
 C        -8.9677519508        4.7456751994       -6.2156556172
 C        -2.3668481125        5.9181490254       -3.8482603586
 C        -2.0140958277        3.6810303499       -2.6378302486
 H        -2.9031341166        5.8485412830        0.7443576840
 H        -2.4614784478        4.4188984719        0.1205560752
 H        -4.2077332987        4.7506621590        0.1585935266
 H        -4.7927907209        6.3622289564       -3.7792933152
 H        -6.0675303025        5.6778779525       -2.7220089881
 H        -6.5085141111        4.0429700828       -4.8720462320
 H        -5.3576646005        5.1043270075       -5.6790576397
 H        -9.4590756161        7.8947536083       -3.7503360248
 H        -8.2571793393        7.2977647392       -2.5066261528
 H       -10.1271177684        7.8278294332       -1.1851352215
 H       -10.1048643161        6.1195633304       -1.3885792767
 H       -13.5295660289        4.5760519441       -2.7427219892
 H       -14.1060382584        3.7274808666       -1.3167654731
 H       -11.0257599929        3.7804532650       -1.7354212585
 H       -12.1240372483        2.9704590428       -2.9078645852
 H        -7.8151109061        2.3626796735       -0.2096083068
 H        -8.1949025740        0.6783882913       -0.0706051812
 H        -8.2257148889        2.7059242175        2.3020186278
 H        -6.9873976726        1.3975708117        1.9680691575
 H       -11.5428003928       -0.8767900410        4.4954941751
 H       -11.6725762811       -0.7299477396        2.7494842093
 H       -14.1738186487       -0.6208472566        3.5118332266
 H       -13.5012721205        0.9247247978        2.8674790523
 H       -14.2010341707        4.6247342891        6.6320325843
 H       -12.7922829427        4.8648286629        5.5539458830
 H       -12.8985225394        3.4639471906        6.6334084524
 H       -16.6549984398        1.2343171759        4.5659998339
 H       -15.6599819928        1.5414785166        3.1839002226
 H       -16.5150999404        2.7843337301        4.0186208256
 H       -15.9595896556        2.9141523803        6.9681415132
 H       -14.7311635778        1.8274479015        7.4903698183
 H       -16.1742854292        1.2274610574        6.7666135750
 H        -9.8832832805       -0.0383168712        5.8780516855
 H        -8.1523480713        0.1871846060        5.4310193715
 H        -9.1317553921       -0.9537266798        4.6174064027
 H        -9.5159634749        3.2503611675        3.8127105053
 H        -8.0712956353        2.6133166927        4.4257026454
 H        -9.5576883642        2.7794872194        5.4540435558
 H       -10.3209826165       -0.9794449293       -0.4790693676
 H       -11.8721062794       -0.6834016201       -1.1407862948
 H       -11.7555540148       -0.2219579779        0.5260107108
 H        -9.7312727035        2.1990420885       -2.4056850892
 H       -10.9942636085        1.1436819656       -2.9819260678
 H        -9.3993933303        0.5381806288       -2.4854705683
 H       -13.1577116391        7.8664075287        0.5877378295
 H       -13.3367961575        8.9186806968       -0.6737768208
 H       -11.6852055524        8.3691693519       -0.2530404044
 H       -15.0703863539        7.2825050441       -1.5269725333
 H       -14.3932667671        6.4596815458       -2.8408258562
 H       -14.2168085595        8.2164996254       -2.6955535850
 H        -9.0350207313        7.0670076666       -7.1434849333
 H        -8.8211607948        7.9869948784       -5.6692264025
 H       -10.2741866418        7.1613040316       -5.9035610011
 H       -10.0191836836        4.6206440587       -6.4419874480
 H        -8.6833953541        3.8120403781       -5.7586931722
 H        -8.3731158481        4.7714948733       -7.1433034916
 H        -1.3221753438        6.2327190944       -3.4947735952
 H        -2.9520745146        6.8512745051       -3.9545286201
 H        -2.2784347014        5.3796457914       -4.8182703572
 H        -2.5637608537        2.7560856324       -2.9171823885
 H        -1.7175567566        3.5267831282       -1.5598588310
 H        -1.1373822089        3.7418329142       -3.1793553867
 Na      -12.7726768163        3.4208475660        1.7381962810
