117

 C        -3.2061331250        4.9840321941       -0.1818554581
 C        -3.0847607996        5.7528868103       -1.4693127190
 O        -3.1211175638        6.9943238497       -1.4713584628
 C        -2.9182844991        4.9567306064       -2.8228193503
 C        -4.2770357260        4.3851945315       -3.2221180473
 O        -4.6063720017        3.2524175199       -3.2390981036
 C        -5.3402432336        5.4302674423       -3.5837258305
 C        -5.9806534018        5.0975900935       -4.9476315802
 C        -6.9925879283        6.1889070924       -5.2856345912
 O        -6.6977383195        7.3647002971       -5.2713076340
 C        -8.5554580882        5.8883729632       -5.4133872294
 C        -9.0031729674        5.6877009805       -3.9140559253
 O        -8.8922083574        4.5559874596       -3.4536951974
 C        -9.2488123126        6.9013573157       -3.0517113654
 C       -10.2957231085        6.8994367135       -1.9847592130
 C       -11.7417520436        6.8522198506       -2.5440529567
 O       -12.0278378871        6.3721363577       -3.6282439417
 C       -12.8848677333        7.0187584507       -1.4397182762
 C       -12.9049827561        5.5342814875       -0.7327588570
 O       -12.9754738615        5.3870692098        0.4687823340
 C       -13.1204509240        4.4310200712       -1.7390717098
 C       -12.0530775044        3.3539997336       -1.6578412506
 C       -12.2047005287        2.0821341382       -0.7847790895
 O       -13.1205031561        1.8385429858       -0.0128197432
 C       -10.8816217883        1.2826443619       -0.8531309457
 C        -9.9261511410        1.9066297005        0.2610636075
 O       -10.4401278353        2.7723634101        0.9203058782
 C        -8.4324472357        1.5451008015        0.4588572347
 C        -7.9913803272        1.6379360404        1.8836121252
 C        -8.9331938216        0.7192341626        2.6977756812
 O        -9.2169297145       -0.3833623358        2.2227648751
 C        -9.5736165486        1.1460126346        4.0720744772
 C       -11.1576189682        1.1381011895        3.7248470393
 O       -11.6520128475        2.2266775905        3.4923366504
 C       -12.0682202705       -0.0456850242        3.6765774218
 C       -13.5411469785        0.3358218178        3.7034162428
 C       -13.7862120271        0.8998944190        5.1074915273
 O       -13.1028499648        0.5762243851        6.0475698236
 C       -14.9547096795        2.0511023436        5.2100908525
 C       -14.1626969930        3.3538033992        4.8454504876
 O       -13.9496337127        3.5761320834        3.6447356884
 C       -13.4213977916        4.2339028232        5.9017563660
 C       -16.1751220032        1.8143593830        4.2003944399
 C       -15.4099135957        2.1774562391        6.6517364739
 C        -9.2130410995        0.0280368120        5.0680696544
 C        -9.0663710413        2.5452786975        4.6115612042
 C       -11.0218407693       -0.2014829107       -0.4344256176
 C       -10.1577272185        1.3397812462       -2.2976061645
 C       -12.7438926435        8.0581404098       -0.2768674337
 C       -14.2622822351        7.2060560640       -2.1807033843
 C        -9.1382365344        7.1669674522       -6.1632753148
 C        -8.8897731122        4.6167564816       -6.2250872536
 C        -2.3505592560        5.9208183641       -3.8513479729
 C        -1.9712925928        3.7014463526       -2.5691984942
 H        -2.7564534271        5.4775688792        0.7175718186
 H        -2.6874973187        4.0548716144       -0.1341353361
 H        -4.2163570253        4.8549344940       -0.0045814333
 H        -5.1032712386        6.5203515112       -3.4560129874
 H        -6.1840160934        5.1841692694       -2.8398974867
 H        -6.3856628582        4.1185988799       -4.8095587727
 H        -5.2593666584        5.0273631915       -5.7262360515
 H        -9.5161925076        7.7565667923       -3.6693821358
 H        -8.2707621655        7.0532223271       -2.5169621291
 H       -10.0072421977        7.7887032059       -1.3124416698
 H       -10.2032337402        6.0806645855       -1.2642052551
 H       -13.0304634451        4.8416006015       -2.7476749707
 H       -14.1565569059        4.0501889895       -1.6580103599
 H       -11.0704887642        3.7668693014       -1.4302428685
 H       -12.0221789031        3.1177098516       -2.7407721846
 H        -7.8297065217        2.2352668663       -0.1276288408
 H        -8.3411744401        0.5516917626       -0.0059648846
 H        -8.1971816823        2.6075239568        2.2899592934
 H        -6.9285597519        1.3542521196        2.0520751099
 H       -11.7939726810       -0.6531357545        4.5357493345
 H       -11.9438402212       -0.5945424040        2.7434519473
 H       -14.0969328705       -0.6163190099        3.6901907335
 H       -13.8038405530        0.9527968470        2.8433197300
 H       -14.1479675460        4.7112544897        6.6081188966
 H       -12.7985323104        5.0182473748        5.5011326311
 H       -12.7992427909        3.6041523270        6.4901907802
 H       -16.9499408037        1.2320949408        4.6087529238
 H       -15.9573618600        1.5177358468        3.2096980148
 H       -16.7439571277        2.7553080803        4.0365265093
 H       -16.0646760587        3.0855278889        6.8511405281
 H       -14.5396853532        2.2143133858        7.3012556031
 H       -15.9841073284        1.3266466330        7.0288288804
 H        -9.8647282155       -0.0094915803        5.9907665444
 H        -8.1632211351        0.3431272286        5.3639849576
 H        -9.1100993804       -0.9182949852        4.6607125897
 H        -9.6480738417        3.3903803851        4.2827207435
 H        -8.1272535012        2.7465696086        4.1470598713
 H        -9.1114861021        2.6768420140        5.7252342039
 H       -10.1279083807       -0.7229108807       -0.6029760958
 H       -11.7426592793       -0.8224630610       -1.0151071743
 H       -11.3734366365       -0.2819116786        0.6163751678
 H        -9.5033936323        2.2190873055       -2.4469357058
 H       -10.7588638542        1.3293473644       -3.1529106167
 H        -9.5075679960        0.5069073484       -2.2966133354
 H       -13.1452981154        7.6395156632        0.6608023983
 H       -13.4324790450        8.9659262044       -0.3551748503
 H       -11.6698707481        8.2486772926       -0.1778043706
 H       -15.1432355880        7.3134803794       -1.4808630754
 H       -14.5442127504        6.4105059295       -2.8783219427
 H       -14.2676219400        8.1800464352       -2.6400773030
 H        -9.0046794744        7.0394776365       -7.1957093317
 H        -8.5043976500        8.0353669302       -5.8398285981
 H       -10.2089753331        7.4690501060       -6.0366773054
 H        -9.9019603449        4.3020756744       -6.3329276646
 H        -8.3740764773        3.7744956192       -5.7382231353
 H        -8.4075781621        4.6421406301       -7.2270101901
 H        -1.4191011612        6.2469714607       -3.3890720786
 H        -2.9865670897        6.8375073151       -3.9486861682
 H        -2.1032731638        5.4452327801       -4.8324040610
 H        -2.5035044814        2.7485053078       -2.6515089610
 H        -1.5106636543        3.7403341709       -1.5878670577
 H        -1.1309646361        3.7459967402       -3.2822650635
 Na      -12.6985123699        3.4660524427        1.8250792257
