117

 C        -7.4198131072       -0.6199332211       11.2230316391
 C        -6.6229547826        0.4926443404       10.4216292820
 O        -6.6326637029        1.6320031286       10.8231350816
 C        -5.7382581557        0.1560875502        9.2258976665
 C        -6.7322628722        0.0799797080        7.9818842119
 O        -7.4999528467       -0.8559382172        7.9904117492
 C        -6.7784805386        1.2158147710        6.9459344635
 C        -7.5103712039        0.8848338971        5.6500432926
 C        -6.7357890243        1.3437554596        4.4261273633
 O        -5.6578747157        1.8783448678        4.4811801540
 C        -7.5573002692        1.1417613193        3.0172352359
 C        -8.6552096080        2.2772715107        2.9292139048
 O        -9.8216344477        2.1887907814        3.2568724345
 C        -8.0846180128        3.5956219624        2.3041736786
 C        -9.0741650117        4.7966046728        2.4368035868
 C        -9.9235317970        5.1436675268        1.2027784028
 O        -9.5935759321        4.6908304519        0.0917520236
 C       -11.1469735219        6.0885193748        1.3272818484
 C       -12.2857019788        5.6394641309        0.2820228009
 O       -12.3422055415        6.3342001392       -0.7570838323
 C       -13.1121520471        4.4217738597        0.5926169786
 C       -13.8142497513        3.6012892139       -0.5745797222
 C       -13.2014520566        2.2112686685       -0.6004073820
 O       -12.6857396728        1.6837586803        0.3751550328
 C       -13.1785960472        1.5279509742       -2.1154654491
 C       -12.3588162087        2.4035002333       -3.0283790503
 O       -11.5578888021        3.2275425891       -2.6187420526
 C       -12.5202592655        2.3952257973       -4.6570583105
 C       -11.3953993493        3.1056397628       -5.4559046706
 C       -11.8917495825        3.7378814428       -6.7757707227
 O       -13.0649114321        4.0907762456       -6.9141650405
 C       -10.8248165820        4.3711244081       -7.7163534918
 C       -10.5845803533        5.7512779890       -6.9893504663
 O        -9.6428940542        5.8574448757       -6.2258046542
 C       -11.5629304768        6.8746154739       -7.0555526914
 C       -11.3172360173        7.8873302516       -6.0048858045
 C       -10.7131946329        7.2213599996       -4.6511214345
 O       -11.2787748556        6.3868651555       -4.0148522602
 C        -9.2687943470        7.7794968147       -4.1909885973
 C        -8.1679527667        6.5749877645       -4.1160603008
 O        -8.4079083197        5.6602081132       -3.3475231571
 C        -6.9672150595        6.5260489913       -5.0465870097
 C        -8.6046444619        8.8816769927       -5.1033550649
 C        -9.3287386222        8.3794705764       -2.7508758785
 C        -9.6376976894        3.4257484098       -7.7912542050
 C       -11.3977992081        4.5380965345       -9.1379441850
 C       -12.5070141896        0.1539382516       -1.8625792779
 C       -14.6959697225        1.3961004714       -2.6878561591
 C       -11.7206633427        6.3228864156        2.8010508075
 C       -10.6185363240        7.4930455895        0.7200187245
 C        -6.5291759527        1.3747532304        1.8792560495
 C        -8.2089605956       -0.3226062759        2.8170882239
 C        -4.6456075945        1.1753745257        9.1632072645
 C        -5.0871783886       -1.2402095836        9.4509728637
 H        -8.2055570743       -1.2124777827       10.6602746093
 H        -8.0007541980       -0.0982577624       11.9724428606
 H        -6.6977618304       -1.3065672226       11.6549091679
 H        -5.7040598126        1.3499485528        6.6495087598
 H        -7.2471810146        2.0345068537        7.4640830807
 H        -8.4279018248        1.3970440910        5.5677455656
 H        -7.8007954133       -0.1437640108        5.5768167498
 H        -7.9221019666        3.3115819489        1.3082472599
 H        -7.1292326401        3.7221420447        2.7777894776
 H        -8.6614478779        5.7031312557        2.7869929370
 H        -9.8223809049        4.4830640967        3.2498788313
 H       -13.7947438908        4.7904236324        1.4101894969
 H       -12.4960279504        3.7647744296        1.2393407687
 H       -13.6757981473        4.0139041709       -1.5791688895
 H       -14.9292969942        3.5312120906       -0.4840915611
 H       -13.5695033958        2.7236331388       -4.8576489591
 H       -12.5614483860        1.3139298624       -5.0412081627
 H       -10.5519017341        2.3683622420       -5.6942316466
 H       -10.9398570970        3.9043859817       -4.7951841829
 H       -12.5842950348        6.4443785866       -7.1629164206
 H       -11.3775333198        7.4195017143       -7.9714365796
 H       -12.2934607462        8.3184692114       -5.7106402222
 H       -10.7060366749        8.7601746430       -6.3130130503
 H        -7.2090132991        5.6386733278       -5.7560664227
 H        -6.0924503977        6.3071202479       -4.4495298667
 H        -6.7455514835        7.4373349072       -5.6587468356
 H        -9.0861639474        9.7629610783       -4.9733027336
 H        -8.6571797947        8.5960661647       -6.1802267335
 H        -7.5216817592        9.0966163495       -4.8603958212
 H       -10.0077654079        7.9708498904       -2.0021599298
 H        -9.7172288693        9.3709458242       -2.8095137225
 H        -8.3596141231        8.4296015163       -2.3873469506
 H       -10.0941136233        2.5102915213       -8.2644704060
 H        -9.2808043725        3.1393571133       -6.8281992626
 H        -8.9120136756        3.7714634779       -8.5308586773
 H       -11.4902833414        3.5315174019       -9.5837213362
 H       -10.7877784826        5.0304379974       -9.8821083017
 H       -12.3026149038        5.1605963262       -8.9932569669
 H       -13.2332338435       -0.4217645435       -1.3316884027
 H       -11.6049749477        0.3145511236       -1.2616544374
 H       -12.2658268530       -0.3521930951       -2.7895188269
 H       -15.4366628163        1.2030197890       -1.8299707451
 H       -14.7211885886        0.5717024945       -3.3430569478
 H       -14.9565649748        2.2912920820       -3.1587699347
 H       -12.6090550075        6.8415521650        2.7018998827
 H       -10.9027046839        6.8939222495        3.3916205122
 H       -11.8508646305        5.4071272198        3.3071723689
 H       -10.3452425896        7.1570335501       -0.2442030666
 H        -9.8707499517        7.9758163295        1.3052186996
 H       -11.4576833305        8.1760964861        0.6065226006
 H        -5.9618292558        0.4981060504        1.6496765812
 H        -5.8529666744        2.2010247774        2.0772748756
 H        -7.0749799814        1.6831152651        0.9751414252
 H        -9.0849094629       -0.4390498638        3.5013148159
 H        -7.4708351441       -1.0461918351        3.2333004193
 H        -8.4096613462       -0.3805729910        1.7158087695
 H        -4.9033009095        2.2199680632        8.9541600697
 H        -3.9281493713        0.9589476871        8.3400114823
 H        -4.1490099722        1.2384901023       10.0652478779
 H        -5.8312920403       -2.0150229134        9.6584306475
 H        -4.4568442702       -1.1864401168       10.3275695675
 H        -4.6780532347       -1.5691372881        8.5297344732
 Na      -10.5819194973        5.3254134457       -2.1090302821
