117

 C        -3.3782938303        4.7606372643       -0.2306463488
 C        -2.9719400169        5.6410519130       -1.4007630590
 O        -2.9745356404        6.8187876472       -1.3080339775
 C        -2.8044653057        4.9347536585       -2.8728889861
 C        -4.1666372740        4.4451405826       -3.2958170174
 O        -4.4097899861        3.2221776339       -3.3700578524
 C        -5.2495446214        5.4273587983       -3.5555603893
 C        -5.8789046307        5.1948845620       -4.9906539386
 C        -6.9395864552        6.2672146142       -5.4128105706
 O        -6.6574901230        7.4366044950       -5.5392088548
 C        -8.4887180528        5.8303658919       -5.5173338906
 C        -9.0223643017        5.6216392026       -4.0832296649
 O        -9.2799803060        4.5073562280       -3.6774174762
 C        -9.2130470954        6.8938684403       -3.1969493568
 C       -10.2372754693        6.7081869956       -1.9769751977
 C       -11.7279804214        6.7494976272       -2.4358431448
 O       -12.0629491585        6.5502732195       -3.5981132326
 C       -12.9052469862        6.9224894990       -1.4004828328
 C       -13.0496053645        5.4683461870       -0.6678733036
 O       -12.6562373816        5.3692279342        0.4997900404
 C       -13.4267866827        4.1682906353       -1.4412227949
 C       -12.1037770797        3.3810715633       -1.6649030517
 C       -12.0740785592        2.1635506784       -0.8303366160
 O       -12.9484932463        1.8853611450       -0.0239320952
 C       -10.8102448815        1.2343357107       -0.8062529276
 C        -9.9909107902        1.9558696566        0.2857959888
 O       -10.3274026559        2.8988018116        1.0243396172
 C        -8.4878317751        1.4669587394        0.4053941443
 C        -8.0896143402        1.5921835923        1.8783696922
 C        -9.0240147449        0.6390238490        2.7565126491
 O        -9.3403492311       -0.4564127663        2.3709687143
 C        -9.5723443406        1.1656878396        4.2139612279
 C       -11.0501301970        1.4131778441        3.8675619290
 O       -11.4669791582        2.5540831442        3.6409112873
 C       -11.9883480828        0.2295890756        3.6453882578
 C       -13.5330275618        0.5322442394        3.7424043885
 C       -13.9356824531        1.0520525774        5.1704960790
 O       -13.3917998110        0.6689715343        6.1714993864
 C       -15.0277615823        2.1723258151        5.2609591628
 C       -14.2926216810        3.4141647352        4.6270521971
 O       -14.2515999873        3.5000615932        3.4247017267
 C       -13.5573736862        4.2513251080        5.7111814908
 C       -16.3292653469        1.8253657317        4.4199910178
 C       -15.4819125268        2.2752515333        6.7916541541
 C        -9.4546971120       -0.0714889319        5.2274100042
 C        -8.9548281381        2.4091180518        4.7636722561
 C       -11.0588610494       -0.2347018210       -0.4253783333
 C       -10.0416163323        1.2759914857       -2.1285076767
 C       -12.6246410843        8.0034841533       -0.3922107266
 C       -14.3061453048        7.2571800582       -2.1321901859
 C        -9.3757693489        6.8512637357       -6.2069931782
 C        -8.6078088489        4.5480237690       -6.3320684950
 C        -2.2102112489        5.9105824739       -3.9314039829
 C        -1.7702945969        3.8095870684       -2.7180118523
 H        -2.7060776167        4.8053713387        0.6000341579
 H        -3.4415507037        3.6957013771       -0.4665304124
 H        -4.3290582347        5.2167279968        0.1859994163
 H        -4.9422769113        6.4526007581       -3.5284574218
 H        -6.0246361871        5.3045074048       -2.8668698313
 H        -6.4485834582        4.2457868003       -4.9148510403
 H        -5.1178279186        5.0422262694       -5.7854926689
 H        -9.6616659009        7.6918361873       -3.7989161404
 H        -8.2287989215        7.1730176276       -2.8186911429
 H       -10.0273081007        7.3887514831       -1.1841392292
 H       -10.0284595393        5.7475075266       -1.4464982111
 H       -13.9718786946        4.3281436965       -2.3649035373
 H       -14.0460615290        3.6442126764       -0.7024481953
 H       -11.2506940962        3.9521132710       -1.2962249039
 H       -11.9348235942        3.3106708279       -2.7110289809
 H        -7.8436659460        2.2145964610       -0.1464856030
 H        -8.3317011163        0.5085636890       -0.0743741239
 H        -8.1772509690        2.6160002517        2.2504344344
 H        -7.1341950149        1.2174222575        2.1778865907
 H       -11.7851653373       -0.4560751380        4.5146084243
 H       -11.7559371901       -0.2576971102        2.6599659134
 H       -14.0413198520       -0.4055778003        3.6036212742
 H       -13.8637444024        1.2865673846        3.0133715227
 H       -14.2114668775        4.7452440882        6.4125162739
 H       -12.9076606155        5.0401210440        5.3035573807
 H       -12.7772398241        3.5858525503        6.2071972648
 H       -16.7923127810        0.8571963403        4.7256751180
 H       -16.1838138688        1.9275878526        3.3179554566
 H       -17.1544054824        2.4925215247        4.6332470376
 H       -16.2767216071        2.9824127915        6.9118480089
 H       -14.6486281732        2.4914621018        7.5043979167
 H       -15.8987837305        1.3279691620        7.1892515944
 H        -9.8975576517        0.2051568761        6.1921336260
 H        -8.4039431396       -0.2726932579        5.3947233322
 H        -9.8838171092       -1.0108068144        4.8504096739
 H        -9.2442119079        3.3886566371        4.3638087513
 H        -7.8764942995        2.3461558128        4.6008098674
 H        -9.2440156380        2.4805305339        5.7669181966
 H       -10.0838340949       -0.8222009518       -0.3874414031
 H       -11.6681062110       -0.7180403141       -1.1155975848
 H       -11.5014590488       -0.2922222213        0.5309327486
 H       -10.0385520512        2.2615651837       -2.5357229255
 H       -10.6232415363        0.7801690052       -2.9674005066
 H        -9.0103720563        0.8429686145       -2.0583394241
 H       -13.4256708579        8.0462367150        0.3520108954
 H       -12.7909923535        8.9391039035       -0.8667443872
 H       -11.6209046472        7.9041592829        0.0138435947
 H       -15.1619215063        7.1986088185       -1.4814748595
 H       -14.5449583765        6.6021031153       -2.9527201595
 H       -14.3148698329        8.3245158496       -2.4673929447
 H        -9.3291610209        6.7729635530       -7.3731672345
 H        -9.2399689787        7.8658250706       -5.9075848386
 H       -10.4191943356        6.5536009494       -6.0099180288
 H        -9.6984727656        4.3556565285       -6.3866323521
 H        -8.1279758418        3.6409796110       -5.9698056611
 H        -8.2974652921        4.6427541935       -7.3569082440
 H        -1.2152584118        6.2274299313       -3.6522668018
 H        -2.8030355865        6.7616034268       -4.0450703864
 H        -2.0831259341        5.3753267845       -4.8257734231
 H        -1.9615133155        3.1719853333       -1.8469213834
 H        -0.7854747936        4.2848290148       -2.5582760649
 H        -1.7142033165        3.2556838063       -3.6101470034
 Na      -12.5518580607        3.5450533014        1.7382327727
