117

 C        -3.4564593805        4.6835958822       -0.3336033751
 C        -3.0538282601        5.6153213047       -1.4609379853
 O        -2.8694583829        6.8176281804       -1.2528721291
 C        -2.7087895843        4.9339224469       -2.8867734405
 C        -4.1014968667        4.3343807513       -3.3479973352
 O        -4.3007299902        3.1656167335       -3.3816995573
 C        -5.1606048624        5.4621659325       -3.6236853815
 C        -5.8921019937        5.2786582575       -4.9785728883
 C        -6.9982918413        6.3227568398       -5.3680619178
 O        -6.6980126163        7.4462842782       -5.6813276722
 C        -8.5385501112        5.7820038118       -5.5219042772
 C        -9.0953814138        5.5872958733       -4.0629980289
 O        -9.4976115195        4.5066096102       -3.6496543205
 C        -9.3540083767        6.8750600383       -3.2333706820
 C       -10.2949147091        6.6201794391       -2.0689064538
 C       -11.7381239972        6.6891107357       -2.5232195549
 O       -12.0132742811        6.6457115119       -3.6948013335
 C       -12.8978312964        6.8101330262       -1.3617990757
 C       -13.0063810950        5.4840733570       -0.6254655661
 O       -12.5428497407        5.4482742471        0.5100687826
 C       -13.5010914044        4.2186529537       -1.2553854264
 C       -12.2852006273        3.3614234294       -1.7500850732
 C       -12.1160491231        2.1372063352       -0.8246445899
 O       -12.9460533632        1.8544863239       -0.0166226595
 C       -10.7590316935        1.2879746012       -0.8461497474
 C        -9.8320672774        1.9687785972        0.2547907835
 O       -10.2617380528        2.8285226360        0.9752688608
 C        -8.3714822630        1.4464356764        0.5855224466
 C        -8.0941415259        1.5523652094        2.0612741696
 C        -8.9917862579        0.6200962271        2.8796411804
 O        -9.4014736335       -0.4545746897        2.4463695664
 C        -9.5877429467        1.1384692348        4.2445548277
 C       -11.1308963424        1.4610627784        3.8861898667
 O       -11.4244203825        2.6870822484        3.6995200544
 C       -12.0760487098        0.2868505432        3.7380869995
 C       -13.5368273527        0.6751977076        3.8131241580
 C       -13.9429613490        1.1198456020        5.2339482084
 O       -13.4155632459        0.6092674861        6.1810262328
 C       -15.1179891520        2.2004165753        5.2409733247
 C       -14.4430467567        3.3905025629        4.6564996890
 O       -14.4284309450        3.5435359313        3.4223538248
 C       -13.6253940928        4.3102488872        5.4931664394
 C       -16.3600805607        1.8288868365        4.4284555992
 C       -15.4717049021        2.3515955188        6.7463025913
 C        -9.5035460107       -0.0645176389        5.1782562180
 C        -8.7034675900        2.3046154967        4.8242371458
 C       -11.2088967740       -0.1071710915       -0.3731121425
 C        -9.9534743829        1.2766662040       -2.1701375602
 C       -12.5415388984        7.9573949937       -0.3570488699
 C       -14.1465710110        7.1686225353       -2.1464525125
 C        -9.3795366473        6.8093751336       -6.2559218351
 C        -8.4638456115        4.4506511158       -6.3635409245
 C        -2.2029105095        6.0438216945       -3.8613100023
 C        -1.7111102550        3.7127348198       -2.7761694311
 H        -2.4725105372        4.5382773516        0.2748569445
 H        -3.7275194720        3.6662434424       -0.6429179271
 H        -4.0992042934        5.1491312446        0.4095318239
 H        -4.8123406747        6.4795091694       -3.6976902122
 H        -5.9048524578        5.4509002927       -2.8388062971
 H        -6.3330565820        4.2409244751       -5.0252828289
 H        -5.1607319837        5.3426060863       -5.8091882560
 H        -9.7328258862        7.6606625493       -3.8278151943
 H        -8.3387263429        7.1040664081       -2.8140534136
 H       -10.0732328323        7.2980799360       -1.1906726627
 H       -10.0322185912        5.6803013582       -1.6558295783
 H       -14.1799804666        4.4586883121       -2.0536976732
 H       -14.0216464716        3.7141529802       -0.4128141578
 H       -11.3405752359        3.9537488368       -1.7457619790
 H       -12.4413100739        3.1193579770       -2.8459510682
 H        -7.6227434323        2.0988310188        0.0991125129
 H        -8.2033584945        0.4944933094        0.1860180938
 H        -8.2016554959        2.5381268693        2.4791131837
 H        -7.0508526317        1.2001202679        2.3331993682
 H       -11.8758312334       -0.4969216271        4.4946945990
 H       -11.8724429559       -0.0426725553        2.7304591313
 H       -14.1422878180       -0.1725638667        3.5345761895
 H       -13.7072580602        1.5711374135        3.1425114734
 H       -14.0696003802        5.0883888229        6.1427552454
 H       -13.0248041097        4.8570764581        4.7544728148
 H       -12.8135560600        3.7576847924        5.9678993920
 H       -16.5970407996        0.7879884241        4.5811854080
 H       -16.2592399856        2.0921536262        3.3548751605
 H       -17.3444408219        2.3312913787        4.7486674900
 H       -16.1688022612        3.1447159956        6.9448050742
 H       -14.5536489480        2.4770121658        7.2763186142
 H       -15.9037749090        1.4539565768        7.1786149282
 H       -10.0373853979        0.2737235387        6.0854188744
 H        -8.4693664528       -0.2424990857        5.4567241089
 H        -9.8740534114       -0.9071537426        4.7985986032
 H        -8.6087099088        3.1528431316        4.1644451458
 H        -7.7033941325        1.9720484952        5.0087095346
 H        -9.1791646784        2.7663193993        5.7038543429
 H       -10.3283196553       -0.7373697242       -0.1343979424
 H       -11.7380872956       -0.5952309874       -1.2108597206
 H       -11.8385281400       -0.0755387746        0.5463822534
 H        -9.9516345925        2.2287065484       -2.6782437284
 H       -10.4756149074        0.6861394618       -2.9535266998
 H        -8.9336991647        0.8354977178       -1.9972828012
 H       -13.4033955623        8.3840186752        0.0715364413
 H       -12.1583626196        8.7812872700       -0.9594168452
 H       -11.8431978273        7.6488292465        0.3300900641
 H       -15.0692734854        7.1447762687       -1.5331048723
 H       -14.3394316181        6.5539737861       -2.9632661298
 H       -14.0563161204        8.1764669020       -2.4966212335
 H        -9.2510295606        6.8331137222       -7.3090385370
 H        -9.3417035472        7.8063460290       -5.8981750748
 H       -10.4095043020        6.4259484969       -6.1218306537
 H        -9.4741210543        4.2018065908       -6.6392207244
 H        -7.9673118497        3.5795764653       -5.9767749310
 H        -7.9854650191        4.6476967907       -7.3514031395
 H        -1.1854866846        6.3577818519       -3.6894173915
 H        -2.8326920126        6.9053706696       -3.8636438368
 H        -2.1553071716        5.5616709994       -4.8101482490
 H        -1.7390065738        3.3448824497       -1.7444790591
 H        -0.6620823010        3.9388719168       -3.0276452790
 H        -2.0701224676        2.9660708648       -3.4173921807
 Na      -12.5343786601        3.5181035910        1.7495536124
