117

 C        -3.4574532107        4.5852680203       -0.4118266707
 C        -2.8656524946        5.5270765645       -1.4784791295
 O        -2.8376991733        6.7464255904       -1.3188649017
 C        -2.6746696236        4.9129591873       -2.8790725748
 C        -4.0826062604        4.4379306751       -3.4094796992
 O        -4.2985245725        3.2412833419       -3.4386765350
 C        -5.1826217132        5.4845245129       -3.6896531050
 C        -5.8855634552        5.2706783895       -5.0260020623
 C        -7.0154233827        6.2829229721       -5.3712072845
 O        -6.8035041276        7.4129187340       -5.7191842966
 C        -8.5777104544        5.7279413118       -5.5242280384
 C        -9.2520361689        5.5325063271       -4.1309616707
 O        -9.6263021372        4.4654787730       -3.6626269399
 C        -9.3456186124        6.8176919598       -3.2481783662
 C       -10.2716726172        6.5609773674       -2.0946527081
 C       -11.7280814382        6.6391606072       -2.5593106351
 O       -12.0513159280        6.7190919533       -3.7163684201
 C       -12.8213955918        6.8127537374       -1.4588446957
 C       -12.8737961021        5.5095228057       -0.5234346507
 O       -12.4332950194        5.4995970941        0.6086573132
 C       -13.5438797276        4.2767909789       -1.2576865065
 C       -12.4945702099        3.2932251548       -1.8329925053
 C       -12.0623289964        2.1656335774       -0.8151559315
 O       -12.9261004786        1.8448909664        0.0233247707
 C       -10.7003380650        1.3376816124       -0.8390217240
 C        -9.7426659754        1.9222962830        0.3647063289
 O       -10.2367856070        2.8454540984        0.9808301559
 C        -8.3677467880        1.3800991530        0.6134384087
 C        -8.0265387381        1.5046500878        2.0771842130
 C        -9.0582039372        0.6297117213        2.8942724515
 O        -9.4144828039       -0.4251249374        2.4593700291
 C        -9.6032423255        1.0844068481        4.3624936400
 C       -11.0631700783        1.5546751352        3.9559132268
 O       -11.3485099547        2.7131457133        3.7619594830
 C       -12.0469512001        0.3984537653        3.7838640517
 C       -13.5275860178        0.7523450700        3.6937884249
 C       -14.0718196180        1.0882785542        5.1730620789
 O       -13.5161223015        0.6780878608        6.1905669520
 C       -15.1568788625        2.1728314555        5.3158819860
 C       -14.4231197032        3.4897784725        4.5599662667
 O       -14.6265531585        3.5641890130        3.3481256656
 C       -13.5853311263        4.4859829256        5.3305550535
 C       -16.3554281809        1.7279589024        4.4958961808
 C       -15.5266185644        2.4854637163        6.8137212971
 C        -9.5261821868       -0.1044609234        5.3079084970
 C        -8.6887934841        2.2057109267        4.9009458026
 C       -11.1539609194       -0.0561905854       -0.3624400474
 C        -9.9809297695        1.2884749521       -2.1924634649
 C       -12.4268187326        7.9618179510       -0.4459097548
 C       -14.1425007984        7.0937732571       -2.1702070378
 C        -9.2941130778        6.7949162781       -6.3215570510
 C        -8.4036047020        4.4051653686       -6.2532168056
 C        -2.1479150221        6.0693950343       -3.7528658840
 C        -1.6740291991        3.7743888476       -2.7780256029
 H        -2.7970053066        3.8939967222        0.1640253516
 H        -4.1710226691        3.9192355026       -0.9526878560
 H        -3.9111983958        5.1882011113        0.3606092311
 H        -4.9516185285        6.5624199560       -3.7146265740
 H        -5.9732109251        5.3365405828       -2.8799395802
 H        -6.2189687116        4.2416231301       -5.1312866295
 H        -5.1579479751        5.4456958054       -5.8255440174
 H        -9.7605026848        7.6733105247       -3.7972197774
 H        -8.3073453735        7.0100831512       -2.9367414309
 H       -10.1159456107        7.3070786485       -1.2698594855
 H        -9.9540419967        5.6420665904       -1.6146739509
 H       -14.0582078104        4.7436904392       -2.1097371069
 H       -14.2681042923        3.7867535178       -0.5881765595
 H       -11.7020247509        3.8239612719       -2.4435716983
 H       -13.0739927663        2.6701357110       -2.6093782613
 H        -7.6602952743        1.8504464930       -0.0064708979
 H        -8.3494477143        0.3281937726        0.2703150600
 H        -8.0997343111        2.5029357204        2.5059562048
 H        -7.0039429257        1.1175732549        2.3203868978
 H       -12.0254290838       -0.2848551494        4.5987791418
 H       -11.7170867348       -0.0592501501        2.8750231401
 H       -14.0311928015       -0.1866205516        3.3318357899
 H       -13.7842710197        1.6273461848        3.1012383145
 H       -14.3344521295        5.1053777673        5.8780180811
 H       -12.9475391152        5.1879817724        4.8013651211
 H       -12.9264234199        3.9989490563        5.9839076979
 H       -16.4932572448        0.6312164853        4.5107797804
 H       -16.1226016232        2.0489868118        3.4783305203
 H       -17.3624843249        2.1549112989        4.6735671531
 H       -16.1658067856        3.3858420188        6.8654794336
 H       -14.6263901049        2.5976385861        7.3642187889
 H       -16.0724066804        1.7061472619        7.2799254141
 H       -10.2054117493        0.0979621914        6.0698867741
 H        -8.5551016188       -0.2133690666        5.7343639590
 H        -9.8085175423       -1.0664716274        4.7229513930
 H        -8.5785928431        3.0028566489        4.1889290179
 H        -7.7038209359        1.8737684125        5.2295172234
 H        -9.2227945797        2.7342728897        5.7304244124
 H       -10.3150363811       -0.6446760667       -0.0589461990
 H       -11.6453030153       -0.5927477613       -1.2600588677
 H       -11.8398790962       -0.0480767994        0.5496364299
 H        -9.8107038537        2.2322455991       -2.7754926217
 H       -10.5600395930        0.7546274315       -2.8935476832
 H        -9.1125386226        0.6997757238       -2.0127200605
 H       -13.2980937857        8.4821720272       -0.1595725527
 H       -11.7220720790        8.7075007535       -0.8079701583
 H       -12.0064941149        7.4921620113        0.4324145057
 H       -14.9543828175        7.0715236379       -1.4689653477
 H       -14.4266390038        6.3868700906       -2.9792876264
 H       -14.1297651299        8.0217393661       -2.6632485217
 H        -8.9936885335        6.8663451886       -7.3013267674
 H        -9.1950525872        7.8271711566       -5.9204127839
 H       -10.3240577320        6.5574447624       -6.3428880558
 H        -9.3442771375        4.1543264619       -6.7048517694
 H        -8.0331544270        3.5680377830       -5.6569479098
 H        -7.7188747354        4.4815448622       -7.1028629480
 H        -1.1147174789        6.2837635078       -3.5458311399
 H        -2.7533257196        6.9898216409       -3.5671434236
 H        -2.1255295793        5.7488954386       -4.8184549234
 H        -1.4769517368        3.5650491983       -1.7503476631
 H        -0.7532428560        3.9776989877       -3.2624654259
 H        -2.1528402484        2.8641886244       -3.2596698810
 Na      -12.5486712461        3.4630060007        1.8426850376
