117

 C        -3.4509022962        4.4589830817       -0.4901634088
 C        -2.8850933052        5.4802316058       -1.4494746696
 O        -2.7696998663        6.6384280687       -1.0834784165
 C        -2.6618818923        4.9991717322       -2.9651940528
 C        -4.0544225092        4.5604546088       -3.5948625192
 O        -4.3467460574        3.3896533571       -3.6408133034
 C        -5.1082188290        5.6449798812       -3.7645682353
 C        -5.8269222101        5.2458126486       -5.0807952534
 C        -7.0164333224        6.1503210848       -5.4002148874
 O        -6.8013744629        7.3556710430       -5.4277977865
 C        -8.4302768794        5.5081589251       -5.6400024014
 C        -9.1872358143        5.4806595649       -4.2073196007
 O        -9.7608197260        4.4512030057       -3.9099661024
 C        -9.1748198596        6.6989590308       -3.2476487834
 C       -10.1844514069        6.5501348441       -2.0945465597
 C       -11.6404883941        6.6928957944       -2.5463825214
 O       -12.0016244909        6.7102582008       -3.6962102632
 C       -12.7541014840        6.8635284813       -1.4392954172
 C       -12.8189716416        5.3997205193       -0.6074791588
 O       -12.3041818039        5.2992977979        0.4865277203
 C       -13.5151189201        4.1324251055       -1.3128962515
 C       -12.5848350393        3.0181370691       -1.8126041607
 C       -12.1782623511        2.1180503248       -0.6707229607
 O       -12.8138870985        2.0776764509        0.3496850406
 C       -10.7509091313        1.3458820948       -0.7800326186
 C        -9.9006369191        1.9819438316        0.4061524024
 O       -10.2507794090        2.9091723993        1.1301257419
 C        -8.4713167900        1.3321215731        0.6196296389
 C        -8.0529526955        1.4453069238        2.0666906665
 C        -9.0319293682        0.5828871893        2.9853112610
 O        -9.5528125907       -0.4648619720        2.5812511824
 C        -9.4855533704        1.0156998770        4.3713042826
 C       -10.9617051606        1.4662793174        4.0311461861
 O       -11.1959663866        2.6843482710        3.8855259538
 C       -12.0029703747        0.3751614347        3.8373072223
 C       -13.4351583346        0.8218315010        3.7291184798
 C       -14.0728828612        1.2789224792        5.1843240436
 O       -13.6821352056        0.7757908637        6.1855291508
 C       -15.1803292714        2.3995979932        5.1688466237
 C       -14.6444432326        3.5800874300        4.2802779090
 O       -14.6890506794        3.6402657019        3.0735281743
 C       -13.8357470623        4.6760759116        5.1583836739
 C       -16.4436694397        1.7172110470        4.5453128893
 C       -15.4669962674        2.8031783625        6.6978113838
 C        -9.5502104367       -0.1845255472        5.3795173351
 C        -8.8317026670        2.2458833744        5.1716462496
 C       -10.9842002909       -0.1320317861       -0.4410336404
 C       -10.0982201019        1.5566906161       -2.1675605097
 C       -12.3701851830        8.2015702908       -0.5726654265
 C       -14.1709833301        7.1151018356       -1.9497576433
 C        -9.2646447194        6.5024071749       -6.5054336521
 C        -8.6325979542        4.0696934318       -6.2842317842
 C        -1.9916487964        6.1000203877       -3.8067563654
 C        -1.7309025265        3.8023174447       -2.9810101390
 H        -3.0356457920        3.4611363342       -0.5876782676
 H        -4.4866976819        4.4093557154       -0.7063608633
 H        -3.2106089445        4.6607161014        0.5384997839
 H        -4.6426418369        6.6197927367       -3.9443646184
 H        -5.8160173083        5.7716257549       -2.9594456007
 H        -6.0706462774        4.1806470075       -4.9676545457
 H        -5.1184624660        5.3266367038       -5.9024770112
 H        -9.4077123923        7.6358125708       -3.7815213515
 H        -8.1167818068        6.7035358804       -2.9151158946
 H        -9.9643492451        7.2810738093       -1.3063405354
 H        -9.9746088379        5.5769121359       -1.5620182006
 H       -14.0428927403        4.6022999866       -2.1176011484
 H       -14.2262839669        3.6912614403       -0.6115102555
 H       -11.6771409946        3.3929070168       -2.2146481017
 H       -12.9661079487        2.4459511802       -2.6106658372
 H        -7.6752378224        1.8291157957       -0.0541216939
 H        -8.3953254237        0.2950078355        0.3248149628
 H        -7.9339180834        2.4130240860        2.5375521700
 H        -7.1075271761        0.9476690803        2.1445683582
 H       -11.9828360114       -0.2461939170        4.7747711647
 H       -11.6206492587       -0.1809413606        2.9370286674
 H       -14.0370989210       -0.0138741240        3.4584410802
 H       -13.5439293465        1.6170573955        2.9721349434
 H       -14.4238849921        5.4133323735        5.6508114580
 H       -13.1476278718        5.3045194174        4.6003293865
 H       -13.1274098324        4.1671045187        5.8454202885
 H       -16.6695741675        0.7933397178        5.0637283869
 H       -16.3404065782        1.5019482542        3.4730099092
 H       -17.2448957647        2.4778629140        4.6060363918
 H       -16.1906099827        3.6134306482        6.7565700082
 H       -14.4972410877        3.0719238483        7.2042982873
 H       -15.9028828376        1.8847142769        7.2218452032
 H       -10.3255905140        0.0894791894        6.2061965575
 H        -8.5429228331       -0.3484801060        5.8845808505
 H        -9.8229663214       -0.9927145201        4.8366159947
 H        -9.2110606562        3.2265384530        4.7864915929
 H        -7.7243591502        2.2536558858        5.1092745530
 H        -9.0411678740        2.2069928591        6.2448518113
 H       -10.0522357886       -0.7172871634       -0.6106478059
 H       -11.7692034022       -0.4737001221       -1.0337307588
 H       -11.1513144542       -0.2671769212        0.5839997900
 H        -9.8205862502        2.5374129791       -2.2719525028
 H       -10.7769144359        1.3759735484       -3.0198256595
 H        -9.2491959754        0.8849131589       -2.3198392949
 H       -13.3227018844        8.4505943708        0.0266346007
 H       -12.0159834423        9.0312649217       -1.2663164109
 H       -11.5576555106        8.0471687907        0.1838505328
 H       -14.8752552069        6.8825612803       -1.1048220343
 H       -14.4631230943        6.4603558194       -2.7442913360
 H       -14.3975566801        8.0968156315       -2.4448741401
 H        -8.7531096313        6.6089534364       -7.5096516260
 H        -9.2089365274        7.5264375465       -6.1633309564
 H       -10.3729328535        6.3046907929       -6.6976290942
 H        -9.6401365598        3.9684518771       -6.7185859311
 H        -8.4775579409        3.3190915076       -5.5286272378
 H        -7.8903238525        3.8075871564       -7.0418212512
 H        -0.9778216036        6.2966806631       -3.3460514781
 H        -2.5379572363        7.0354004255       -3.7724766816
 H        -1.7524396951        5.7629872949       -4.8133143337
 H        -0.9568356089        3.9313124887       -2.1795298609
 H        -1.2023824033        3.7168867795       -3.9703061285
 H        -2.2833532000        2.9340505743       -2.8168264393
 Na      -12.5660934620        3.4562988917        2.0937774484
