117

 C        -3.4365591302        4.2695787578       -0.5136263623
 C        -2.9284731999        5.3283712099       -1.4940293829
 O        -2.6267136507        6.4135908951       -1.0773705180
 C        -2.5589454885        5.0471276006       -3.0490832880
 C        -3.9300108270        4.5897453971       -3.7328002704
 O        -4.3674341490        3.4102785538       -3.7260571927
 C        -4.7569882838        5.6992968836       -4.3547603687
 C        -5.9821337243        5.0944195306       -5.0870673603
 C        -7.1550235060        6.0430206414       -5.3326807438
 O        -7.1938508635        7.2311117994       -5.0846174894
 C        -8.5850714008        5.3490504980       -5.6474185360
 C        -9.3744624502        5.2532717718       -4.3417041844
 O        -9.9167146636        4.2424999931       -3.9276764656
 C        -9.2813300756        6.5115420475       -3.4674522729
 C       -10.1470068467        6.6050742876       -2.1865014779
 C       -11.5973439403        6.7046483205       -2.5314380901
 O       -11.9585069484        6.6692616824       -3.6807220285
 C       -12.6651656968        6.7428489999       -1.3461371287
 C       -12.7943336932        5.3938551103       -0.7344176412
 O       -12.2042211667        5.2375755815        0.3106414178
 C       -13.5610294136        4.1063164328       -1.2406224044
 C       -12.6197293283        3.0517130703       -1.7226918185
 C       -12.1813149334        2.2333824652       -0.5181736826
 O       -12.9001919781        2.0369572608        0.4888206039
 C       -10.7925741673        1.5053136766       -0.5598744580
 C        -9.8907993027        2.0419145294        0.6206522367
 O       -10.2320613912        2.8844255960        1.4398051698
 C        -8.4826093751        1.3652014557        0.7472230514
 C        -8.1514663130        1.4960950585        2.2401787192
 C        -8.9965852794        0.4827426934        3.1171806137
 O        -9.4071156698       -0.5127500824        2.5238892290
 C        -9.5867805680        0.9657617370        4.4621468821
 C       -11.0774950929        1.3549069617        4.1708896254
 O       -11.2967284777        2.5283389748        4.0774888102
 C       -12.0995869184        0.1937267079        4.1305767734
 C       -13.5661541881        0.7180880133        3.8454358478
 C       -14.1538345273        1.4186058282        5.1357424204
 O       -13.6914963263        1.1279923582        6.1768205569
 C       -15.2398000879        2.7053605945        5.0646451204
 C       -14.6187112221        3.7353913906        4.1139309965
 O       -14.5473052305        3.5240267722        2.9166475520
 C       -14.1504940673        5.0439966388        4.6469473424
 C       -16.4580723423        2.0984488655        4.3751438485
 C       -15.6078745370        3.1092558334        6.5247394535
 C        -9.4247746000       -0.2738518637        5.4554374545
 C        -8.7678688181        2.1273839385        5.0210548030
 C       -11.0744934008       -0.0521136647       -0.5536619156
 C        -9.9660149964        1.7640495621       -1.8536056614
 C       -12.2426534956        7.7778358996       -0.2451593073
 C       -13.9551916105        7.2034855852       -2.0749153065
 C        -9.3437737278        6.2805768841       -6.6054902290
 C        -8.4482520628        3.9187305674       -6.3332958622
 C        -1.8759725191        6.2924440873       -3.5961057949
 C        -1.5436930060        3.8797966224       -3.1027659873
 H        -3.8622736656        3.3994430711       -0.9478661337
 H        -4.1358378668        4.8200282649        0.1531062395
 H        -2.5900964668        3.7622433863        0.0254292656
 H        -4.1458152040        6.3715461511       -5.0105027981
 H        -5.0697312026        6.3704422994       -3.4941545618
 H        -6.2799251067        4.2659309775       -4.4650051420
 H        -5.5809881238        4.5969126999       -5.9694287824
 H        -9.4736983990        7.3943079888       -4.1424557446
 H        -8.2659512428        6.6491972467       -3.1329095452
 H        -9.6761490836        7.3632427597       -1.6457026767
 H        -9.9565889915        5.6735119946       -1.5717283687
 H       -14.3492563875        4.3140073960       -1.9959907569
 H       -14.0579271128        3.6657122167       -0.3531789176
 H       -11.7635214143        3.4452724473       -2.3602460278
 H       -13.1687915602        2.4107641638       -2.4716344121
 H        -7.7083826438        1.8181362920        0.1671549174
 H        -8.5343454289        0.3498580872        0.3514835754
 H        -8.3679828280        2.5668750388        2.5747011555
 H        -7.1126251292        1.3294350993        2.5068786523
 H       -12.0165484460       -0.2579813884        5.0738844747
 H       -11.8798772773       -0.5027602064        3.3407594210
 H       -14.2364637062       -0.1785971528        3.7024304015
 H       -13.6369410667        1.2825725420        2.9209197408
 H       -14.9237090668        5.4614122914        5.2502696351
 H       -14.1208227218        5.7403276568        3.8242352004
 H       -13.1588143439        5.1241133379        5.1623237631
 H       -16.9406056051        1.2537404927        4.9194562129
 H       -16.1549441702        1.6456898172        3.4205404617
 H       -17.1071726482        2.9340104175        4.1845220223
 H       -16.3814147968        3.8160840910        6.6193721168
 H       -14.7194014839        3.4839156842        7.0273507698
 H       -15.9432961805        2.1748520164        6.9504540436
 H        -9.6812644093        0.0309845435        6.5144427588
 H        -8.3499050029       -0.4782576868        5.4362589754
 H        -9.9511863867       -1.0611630360        5.1118095724
 H        -8.8804669445        3.0387545100        4.4323858709
 H        -7.7193617469        1.8717593950        5.1963744751
 H        -9.0474734170        2.2759979042        6.0141691356
 H       -10.1691503731       -0.6883636439       -0.9570720547
 H       -11.9826231102       -0.1465439101       -1.1361087964
 H       -11.2584305290       -0.3539318611        0.4931578025
 H        -9.7376152697        2.8004617407       -1.9072131776
 H       -10.5129050341        1.4461350164       -2.7825795332
 H        -8.9938328396        1.2332427574       -1.9083251504
 H       -12.8862558957        7.6778059264        0.5885813251
 H       -12.1658263523        8.7302132164       -0.6604215787
 H       -11.2931508568        7.5384147732        0.1229285673
 H       -14.8593610439        7.1100755524       -1.5494665764
 H       -14.0672530861        6.8072231950       -3.0628344578
 H       -13.8273787361        8.2829967102       -2.2408996863
 H        -8.9441803031        6.2150905984       -7.6335047735
 H        -9.2988226426        7.2635086970       -6.3409094926
 H       -10.3837933549        6.1023991021       -6.6474881463
 H        -9.4883204726        3.5376123162       -6.3785105017
 H        -7.8810162592        3.2076221365       -5.7213614034
 H        -8.0235624545        3.9203059605       -7.3217123437
 H        -0.8925986718        6.4088250616       -3.1081886182
 H        -2.4661809468        7.1458817705       -3.3171990594
 H        -1.8186116306        6.3030762148       -4.6741866018
 H        -0.5832904278        4.2611720092       -3.4496538617
 H        -1.8953082307        3.1929988887       -3.8668787666
 H        -1.3775441255        3.3645982273       -2.1761273036
 Na      -12.3668895070        3.8436180123        2.0553480720
