117

 C        -3.4136090728        3.9540214385       -0.9189438388
 C        -2.9037635587        5.3050809767       -1.6229640448
 O        -2.7236939290        6.2517237139       -0.9138227133
 C        -2.4954766930        5.1299185832       -3.1839482859
 C        -3.7920654725        4.6628369927       -3.8328563198
 O        -4.2035795727        3.5097856901       -3.4872280452
 C        -4.6470783772        5.4670036008       -4.8273914931
 C        -5.9998900059        4.7952054763       -5.0912229700
 C        -7.1146746747        5.7945721371       -5.3600311427
 O        -6.9349816163        6.9974063771       -5.3297258927
 C        -8.5912746463        5.2376903044       -5.6062305356
 C        -9.3359254731        5.2038596739       -4.1986674426
 O        -9.9306552665        4.2235434362       -3.7918137849
 C        -9.2469410179        6.4142784269       -3.2745390980
 C       -10.3613354019        6.3037722123       -2.1486747082
 C       -11.7638129008        6.6790171500       -2.6039986284
 O       -12.2498021891        6.5620694832       -3.6999974631
 C       -12.7880142773        6.9253618742       -1.3719278797
 C       -12.7409350249        5.4400121986       -0.7288955707
 O       -12.1298427223        5.2336689995        0.2999589954
 C       -13.5418941632        4.2945440344       -1.3814759997
 C       -12.6336457741        3.1316640448       -1.6915362523
 C       -12.0938516016        2.3737070058       -0.5518771500
 O       -12.8966418784        2.1142234201        0.3764508244
 C       -10.7011570304        1.6447366527       -0.5422494866
 C        -9.7545019420        2.0240798180        0.6920201768
 O       -10.1514429232        2.7407002052        1.5828854887
 C        -8.3218348542        1.5842178313        0.7907895943
 C        -8.0410186268        1.2969167886        2.3484418945
 C        -9.1668429133        0.4551783211        3.1593932216
 O        -9.5168558474       -0.6203481931        2.7319053191
 C        -9.6369213001        0.9192876121        4.5461788145
 C       -11.1701326297        1.3392489621        4.3207880545
 O       -11.4696691150        2.4458496731        4.0612314817
 C       -12.3138321200        0.2217491693        4.4088737037
 C       -13.7318288604        0.7696814313        4.0785119864
 C       -14.1126366226        1.7533081563        5.2510949607
 O       -13.7063868586        1.6918048762        6.3651841167
 C       -15.2280568407        2.7557374473        4.9173283825
 C       -14.5298802863        3.8560487364        3.9811023169
 O       -14.2471218879        3.4715536915        2.8537191212
 C       -14.3360764643        5.2656186425        4.3625012752
 C       -16.3315217357        2.1591008905        4.0991981162
 C       -15.7577442432        3.4486864075        6.1609325596
 C        -9.5548040480       -0.4039217378        5.4965912721
 C        -8.9318009091        2.1332365393        5.1470610332
 C       -11.0447985084        0.1641008736       -0.3850900821
 C        -9.9771218485        1.7869834967       -1.8552870837
 C       -12.1512976977        7.9671336359       -0.3694531273
 C       -14.2041176819        7.2799186237       -1.8703030327
 C        -9.3539043757        6.1970579912       -6.5143710891
 C        -8.4934464148        3.7888676762       -6.1443206483
 C        -1.8029835530        6.4759597006       -3.7129535547
 C        -1.4632948257        4.0220114738       -3.2770347473
 H        -4.4235963819        3.7389360383       -0.9306659396
 H        -3.0084720963        3.9719265387        0.1269130351
 H        -3.0141867238        3.0254633341       -1.3837521606
 H        -4.0511680624        5.5979968667       -5.6906360428
 H        -4.8078670985        6.4443659014       -4.4497758523
 H        -6.1861797549        4.1270952767       -4.2208311564
 H        -5.8499274958        4.0074414394       -5.8795802432
 H        -9.3514588726        7.3595598084       -3.8408476684
 H        -8.2226036645        6.4245955084       -2.9038144436
 H        -9.9815195186        6.8284039488       -1.2738003033
 H       -10.4553453259        5.2466004712       -1.9050514148
 H       -14.0757467291        4.6194517441       -2.2901685756
 H       -14.2568936814        4.0145271888       -0.6386374262
 H       -11.8798872743        3.4498034616       -2.3980931778
 H       -13.2374653443        2.4260313645       -2.2511892574
 H        -7.7017845216        2.3225566092        0.3266699794
 H        -8.1493278759        0.6553352786        0.1662909661
 H        -7.8360495376        2.2298700570        2.9371469406
 H        -7.1802580475        0.6479997474        2.4816932909
 H       -12.4538127943       -0.1930324461        5.4363841646
 H       -12.0878129156       -0.6535376143        3.7278038963
 H       -14.4102451837       -0.1228521694        4.0366705644
 H       -13.9352236780        1.2591984545        3.1633881132
 H       -15.2603632301        5.7162441610        4.7322223309
 H       -13.9738790845        5.8391032883        3.5071549666
 H       -13.6060283539        5.3587971289        5.1892272885
 H       -16.4813991700        1.0855089779        4.4755400328
 H       -15.8826699598        1.9916473046        3.1031614666
 H       -17.2314636559        2.7019767694        4.1363211943
 H       -16.5046000837        4.1674602880        5.7659214930
 H       -14.9729955401        4.0545869140        6.6683512016
 H       -16.2390573532        2.6924945493        6.8012095587
 H       -10.2965007509       -0.2510826096        6.3126346767
 H        -8.5503590717       -0.4143167773        5.8975984519
 H        -9.7795251874       -1.2367271740        4.9292678876
 H        -9.0695394185        3.0496074719        4.5766181165
 H        -7.8685822869        1.9621427924        5.4180832569
 H        -9.3578625985        2.2383580575        6.1338884807
 H       -10.2906015384       -0.2377767216        0.3220940947
 H       -10.9367713195       -0.3427914900       -1.2869169337
 H       -12.0219627578        0.0795753732       -0.0278036871
 H        -9.6190691062        2.7846047727       -2.0948883524
 H       -10.6769224525        1.3211639368       -2.5709325712
 H        -9.0706358802        1.1988601682       -1.8928220732
 H       -13.0057590818        8.5214213826        0.1311540241
 H       -11.5261647780        8.6799758223       -0.9035357756
 H       -11.5672642471        7.4923453452        0.4858705524
 H       -14.8150769105        7.4893874248       -1.0257757936
 H       -14.6781933029        6.4430877884       -2.4628881393
 H       -14.2674764558        8.2429712191       -2.4114773179
 H        -8.9808764390        6.1787760424       -7.6082364508
 H        -9.4837597406        7.2299278911       -6.2171540242
 H       -10.3807170516        5.8629593037       -6.6244532128
 H        -9.4617710094        3.4257188972       -6.5320331379
 H        -8.1318918768        3.0579491194       -5.4011601070
 H        -7.8630315235        3.8953956811       -7.0004471780
 H        -1.0269296522        6.7027960976       -3.0027091490
 H        -2.4690718222        7.3275313618       -3.8438741057
 H        -1.3705742373        6.3331007558       -4.7051304576
 H        -0.9946192732        3.9876042418       -4.2387197923
 H        -1.8859363811        3.0526152390       -3.0645414392
 H        -0.6373656990        4.2955559510       -2.5462103988
 Na      -12.0962520218        3.5313016773        2.1196224279
