117

 C        -3.3594774290        3.9439443129       -0.9471513899
 C        -2.8279781216        5.1802952451       -1.6509565580
 O        -2.7607882554        6.2478414735       -1.0400373024
 C        -2.5156370112        5.1115460725       -3.1402570336
 C        -3.8091058501        4.6033192839       -3.8644576827
 O        -4.2203344743        3.5123452881       -3.4951479061
 C        -4.6238551988        5.3780533127       -4.8724944798
 C        -6.0078544520        4.7387134805       -5.1337659751
 C        -7.1086875453        5.7476686134       -5.3550850511
 O        -6.8051593589        6.9281999922       -5.4192456918
 C        -8.5125759763        5.1822979225       -5.5585492997
 C        -9.2475705242        5.1595355255       -4.1410147667
 O        -9.8926834752        4.1776279940       -3.8193243494
 C        -9.2477447312        6.4369005010       -3.2092597966
 C       -10.4036630618        6.3105385022       -2.2414721074
 C       -11.8660076637        6.5969957091       -2.6128461456
 O       -12.3127406735        6.5727368907       -3.7252353404
 C       -12.8374091303        6.8750348407       -1.3503279869
 C       -12.8182042746        5.5208965500       -0.6181100675
 O       -12.1160085437        5.3027917668        0.3524297777
 C       -13.4586767232        4.2620227822       -1.3901140677
 C       -12.4337981061        3.1981525386       -1.7313887662
 C       -12.0557137612        2.4142905270       -0.4816310940
 O       -12.8517048108        2.1385393047        0.4172831190
 C       -10.6619156679        1.5925638820       -0.5212771365
 C        -9.6981717347        2.0842340932        0.7029380685
 O       -10.0800889178        2.7946570295        1.6148809326
 C        -8.2965189412        1.4388526250        0.8957604146
 C        -8.1178568053        1.3007748553        2.3643248976
 C        -9.1541851708        0.3806768784        3.1423479726
 O        -9.6246352877       -0.6259791792        2.6190339659
 C        -9.7413515938        0.8590449508        4.5989008163
 C       -11.2331721661        1.2678001454        4.3319288190
 O       -11.4563676853        2.4543117377        4.0898365904
 C       -12.2881493817        0.2103683341        4.4734149135
 C       -13.6822692385        0.7802606549        4.2603671462
 C       -14.1360028795        1.8205046886        5.2862169843
 O       -13.6092845763        1.7900199425        6.3869450708
 C       -15.2819804301        2.8858757250        4.8613869556
 C       -14.5897179011        3.9421128374        3.8968582749
 O       -14.3223535500        3.4897646747        2.8018755284
 C       -14.2878824278        5.3927582163        4.3241551704
 C       -16.3434375403        2.1005692235        4.0146196804
 C       -15.9484698466        3.5383049654        6.1507359502
 C        -9.5715910613       -0.2919927888        5.5673782753
 C        -8.9597314797        2.0685721407        5.1587820078
 C       -11.0479003044        0.0760477344       -0.3410820625
 C        -9.9663630005        1.7823530444       -1.9067005845
 C       -12.2299716944        7.9598029443       -0.3938696203
 C       -14.1823162706        7.3425184600       -1.8071417370
 C        -9.2992646973        6.1535611038       -6.4462752504
 C        -8.5650790115        3.7530703388       -6.0948570402
 C        -1.9375412297        6.4841551922       -3.6538764644
 C        -1.3483811085        4.1477916496       -3.3961413552
 H        -4.4512812337        4.1175202699       -0.8428245824
 H        -2.9085666898        3.7282152778        0.0255633935
 H        -3.3618602618        3.0091693310       -1.5530831683
 H        -4.0325849222        5.5381759230       -5.7588987089
 H        -4.7608197707        6.3756933042       -4.4601706291
 H        -6.1998155331        3.9800589781       -4.3644972950
 H        -5.8698336346        4.0766392249       -6.0018253147
 H        -9.3068159978        7.3940604749       -3.7785952032
 H        -8.2738218979        6.4559020712       -2.7496276669
 H       -10.1087576021        6.8063234738       -1.3859530700
 H       -10.4193872450        5.2136932148       -2.0089919613
 H       -13.9130066143        4.6215376990       -2.3144755268
 H       -14.2501257590        3.7999421922       -0.7755788875
 H       -11.5748294906        3.6474249337       -2.3161303782
 H       -12.9074863858        2.4611349736       -2.4396658217
 H        -7.5649587836        2.1443204417        0.5423106830
 H        -8.0665884292        0.5410449143        0.3515443948
 H        -8.1932350070        2.3296990311        2.8700760834
 H        -7.1020572347        0.9269678847        2.5921858542
 H       -12.2514060147       -0.2601867782        5.4315320278
 H       -12.0812046610       -0.5666774571        3.7313544134
 H       -14.4068121203       -0.0705513069        4.2908983506
 H       -13.9095274688        1.2099565759        3.2709392621
 H       -15.2067277424        5.9541322712        4.2613769734
 H       -13.5951102420        5.8140536262        3.5756421327
 H       -13.8962142741        5.6129943311        5.3645760038
 H       -16.7199874483        1.2398306192        4.6177682342
 H       -15.9758100776        1.6908223266        3.0453982568
 H       -17.1751538857        2.8139793505        3.9299321003
 H       -16.7341848955        4.1898656963        5.8732936819
 H       -15.2231096167        4.0936118220        6.7699314269
 H       -16.3428393290        2.6561992934        6.6849537422
 H       -10.1017737904       -0.1606158367        6.5093362972
 H        -8.5156997704       -0.3123477351        5.6897364317
 H        -9.8643919092       -1.1547846030        5.0757184334
 H        -9.1835983272        2.9939472203        4.5935444272
 H        -7.8814998237        1.8647661917        5.1349190286
 H        -9.1740570222        2.2405035215        6.1880209276
 H       -10.3037192402       -0.3895563735        0.3464854820
 H       -10.8999903198       -0.4009344625       -1.2880933384
 H       -12.0858061366        0.0308192144       -0.0420121352
 H        -9.5983467251        2.7733794332       -2.0102370883
 H       -10.6913611015        1.4049077505       -2.6953392149
 H        -9.0029483567        1.1896653018       -2.0098610487
 H       -13.0742242722        8.4148292337        0.1053409632
 H       -11.7405029926        8.7728128153       -0.9484547179
 H       -11.5996151359        7.5685009739        0.3427982351
 H       -14.8479497209        7.5364438229       -0.9756030947
 H       -14.6252527292        6.7580822459       -2.5356443262
 H       -14.0144894622        8.3687685607       -2.1541619562
 H        -8.8790102832        6.0444148495       -7.4529288132
 H        -9.3083742157        7.1624114712       -6.2050706489
 H       -10.3494732093        5.8859877158       -6.6142215014
 H        -9.6099909061        3.4262910276       -6.2586915455
 H        -8.1460517991        3.0733999039       -5.3622248874
 H        -8.0846441290        3.7579929772       -7.0650360962
 H        -1.1586355848        6.7874825055       -2.9569779919
 H        -2.6291807846        7.2547755637       -3.7845029251
 H        -1.5010790888        6.3348746810       -4.6005110658
 H        -1.2968560720        3.8647493629       -4.4686322756
 H        -1.5103802450        3.2187865428       -2.8277567839
 H        -0.4340015190        4.5875209952       -3.1518826439
 Na      -12.1007501539        3.5235705376        2.0742450375
