117

 C        -3.2929533497        3.9391455272       -0.8730440678
 C        -2.8407788338        5.1654270096       -1.6231709148
 O        -2.7634520689        6.2619304970       -1.1238464981
 C        -2.4394967155        5.0636750886       -3.2244502787
 C        -3.8034075898        4.4894707010       -3.8462147502
 O        -4.2240843785        3.4357016555       -3.5515192734
 C        -4.5302922355        5.3618179310       -4.8728248097
 C        -5.8447945593        4.6755037433       -5.2177404166
 C        -6.9830609514        5.6894248931       -5.4127677243
 O        -6.8233954514        6.8901044106       -5.4687660297
 C        -8.4942031755        5.1310338550       -5.5149914967
 C        -9.2923751014        5.1665734726       -4.1707241441
 O        -9.7940048562        4.1243428315       -3.7932284885
 C        -9.3923716463        6.3803562052       -3.2611910162
 C       -10.3905103827        6.3514311244       -2.1788740565
 C       -11.8865515715        6.6085633954       -2.5735637486
 O       -12.2997487887        6.6022208590       -3.7114933179
 C       -12.8541487980        6.8624929132       -1.3351378698
 C       -12.8011250081        5.5152427953       -0.5993771478
 O       -12.2033006177        5.3482335200        0.4682772756
 C       -13.4575281111        4.3204211546       -1.3187845832
 C       -12.3135650843        3.2758403282       -1.6970243600
 C       -11.9919707085        2.2891768857       -0.5504346405
 O       -12.7133666095        2.2376227627        0.3989011154
 C       -10.6424521809        1.4999486324       -0.5239831938
 C        -9.7444187370        1.9933298705        0.6774031347
 O       -10.0525684461        2.9000448069        1.4289578110
 C        -8.4050798109        1.2218168170        1.0222091573
 C        -8.0845040039        1.2224143226        2.4999882886
 C        -9.2137224449        0.4456186129        3.0964059569
 O        -9.6782737638       -0.5364687759        2.5441678482
 C        -9.6738985612        0.7877407750        4.5584805825
 C       -11.2443719495        1.2588250946        4.4059062555
 O       -11.5005363249        2.4521390390        4.0896329121
 C       -12.3006587092        0.2225963711        4.5355318670
 C       -13.6949741035        0.7832120122        4.3093271599
 C       -14.1336182523        1.9057316501        5.3329697706
 O       -13.6120104011        2.0297069745        6.4306082282
 C       -15.3387113112        2.9138818197        4.8528436921
 C       -14.6580581784        3.9538159533        3.8349257579
 O       -14.2943458813        3.6383719692        2.7000479151
 C       -14.2988292486        5.3152255010        4.2983811444
 C       -16.3886357909        2.0913788775        4.0564343912
 C       -16.0280430232        3.5600147707        6.1128702940
 C        -9.5744850216       -0.3240336607        5.6197232016
 C        -8.9349675309        2.0554110824        5.1411605383
 C       -10.9604566908       -0.0164722195       -0.2086029905
 C        -9.8311198579        1.7708181678       -1.8201945794
 C       -12.2459606397        7.9366389655       -0.3980200681
 C       -14.2213698838        7.3378535316       -1.8174548446
 C        -9.2946262832        6.1437038803       -6.4234295483
 C        -8.6330230921        3.7372668055       -6.0743933467
 C        -2.2281660525        6.5661820091       -3.6564684933
 C        -1.2161041087        4.0760959766       -3.5321063852
 H        -4.3984127051        4.0996966992       -0.5607960910
 H        -2.6667102234        3.7319706700       -0.0181729362
 H        -3.3375076945        3.0428618913       -1.4624560366
 H        -3.8486866327        5.4880378972       -5.7622284478
 H        -4.7451233131        6.4199468031       -4.5592544363
 H        -6.1385728562        4.0005854974       -4.4191932732
 H        -5.6395220079        3.9697824859       -5.9844109099
 H        -9.5923932588        7.2929863206       -3.8062881469
 H        -8.3216079542        6.5151022570       -2.9539021104
 H       -10.0756554533        7.2456306096       -1.6111394222
 H       -10.2564844641        5.4674919131       -1.5396881079
 H       -13.8638570929        4.7387873039       -2.2347537504
 H       -14.3111825962        3.8741827109       -0.7358366245
 H       -11.3981667580        3.9023531626       -1.9017759148
 H       -12.5351326779        2.7872961748       -2.6969273270
 H        -7.5853628257        1.7343635237        0.4644912689
 H        -8.3584900080        0.2341011284        0.6786757850
 H        -8.0214573138        2.2096988457        2.9208870177
 H        -7.0943372934        0.7158868948        2.7033961467
 H       -12.2265641481       -0.2325438016        5.5082160181
 H       -12.0203743621       -0.5152674576        3.8379699870
 H       -14.4785772372        0.0431821703        4.2996321322
 H       -13.8340590610        1.2484992408        3.2813165236
 H       -15.0508977782        6.0649508335        3.9643911479
 H       -13.3388585515        5.5558431466        3.8078395092
 H       -14.2419206572        5.4888893788        5.3597325307
 H       -16.9673249298        1.4025441448        4.6567490193
 H       -15.9493150593        1.5950426642        3.1882047537
 H       -17.1070528205        2.9334403607        3.7710508221
 H       -16.7888861674        4.2719842066        5.8271014944
 H       -15.3020773300        4.0142449222        6.7384397211
 H       -16.4456977017        2.7159374648        6.6109853442
 H        -9.9609991339        0.0563140629        6.4922321622
 H        -8.5522446718       -0.6088718243        5.6793478992
 H       -10.2103961366       -1.2277837813        5.2228796758
 H        -9.2321883783        2.9374158980        4.5840112287
 H        -7.8709298852        1.9681841667        5.0582089049
 H        -9.1988896119        2.2740443895        6.2062718025
 H       -10.1533892469       -0.4593928788        0.3030230587
 H       -11.0184403858       -0.5325309602       -1.2263081023
 H       -11.9817770287        0.0005130590        0.2811849254
 H        -9.3393287301        2.7745304022       -1.7734994299
 H       -10.3973494765        1.5458063532       -2.7138988197
 H        -8.9328693196        1.1153605537       -1.8000504701
 H       -12.9823067240        8.2730244124        0.2428080497
 H       -12.0398116812        8.8102156705       -0.9928571016
 H       -11.3979342479        7.6313213280        0.1268139682
 H       -15.0209176852        7.4077583606       -1.0811114616
 H       -14.5002636187        6.8050375534       -2.6846824670
 H       -14.0683283505        8.3330803762       -2.0817288795
 H        -8.9253823964        6.0437220447       -7.3580009620
 H        -9.1371039038        7.2038434584       -6.1874038513
 H       -10.3433266618        6.0252803061       -6.5757738148
 H        -9.6509924281        3.4147223234       -6.0654952087
 H        -8.1010386043        3.0661682229       -5.4235500379
 H        -8.2963524741        3.7739816022       -7.1379758158
 H        -1.5071490362        7.0197753065       -3.0158401120
 H        -3.1563695692        7.0695258342       -3.4886198757
 H        -1.9654923164        6.7456231723       -4.6716968117
 H        -1.3472936729        3.5838090049       -4.5054698883
 H        -1.3582757347        3.2847160634       -2.8031499115
 H        -0.2334838121        4.4733686111       -3.4858488639
 Na      -12.2231077732        3.6016230331        2.0298117359
