117

 C        -2.4850962911        3.7969020881       -0.9680508833
 C        -2.7876242570        5.1502476779       -1.6594260062
 O        -2.9179865780        6.2229674044       -1.1714287429
 C        -2.5665603459        5.1147154744       -3.3455405902
 C        -3.7854228098        4.3484325281       -3.9403428181
 O        -4.0539221143        3.2108749828       -3.6520976159
 C        -4.6269861997        5.0611241579       -5.0429279704
 C        -5.9517228019        4.3791965567       -5.3342010388
 C        -7.0886798464        5.3844452196       -5.4652177112
 O        -6.9336804642        6.5286955213       -5.1228704722
 C        -8.6784228340        5.0308807513       -5.6993047463
 C        -9.2146479885        5.2614259196       -4.2789156167
 O        -9.2014906704        4.3926341626       -3.4074961871
 C        -9.4115521711        6.6971045005       -3.7261010604
 C       -10.1304646722        6.8193099940       -2.3545522555
 C       -11.6836633277        6.8076831106       -2.5012200946
 O       -12.1416384969        6.6158768285       -3.5984094823
 C       -12.6725527395        6.8746304173       -1.2265239346
 C       -12.7424468991        5.5646992674       -0.4362629082
 O       -12.6496893886        5.5430716991        0.8027687387
 C       -13.0419914490        4.2509763878       -1.1766015460
 C       -11.7457885015        3.4020633098       -1.5723250868
 C       -11.6620684497        2.1983316350       -0.5044270091
 O       -12.5423784701        2.0495338640        0.3066847580
 C       -10.4080702235        1.2342007071       -0.5859769501
 C        -9.5855504511        1.7609410186        0.5786006350
 O        -9.9946898266        2.7555335783        1.1549812686
 C        -8.2739146932        1.0489720286        1.0440735508
 C        -8.2477205035        1.0913807546        2.6149741044
 C        -9.4199231307        0.4510980367        3.3108307474
 O       -10.1494649100       -0.3020699403        2.7634893291
 C        -9.7883166245        0.8900545380        4.7399547575
 C       -11.3137676065        1.4563666647        4.5133048364
 O       -11.3849342758        2.4893785089        3.8589288801
 C       -12.4574552811        0.6297726665        4.9922381164
 C       -13.8372780876        1.0421720544        4.5035150886
 C       -14.3138236035        2.2908181316        5.3218244612
 O       -13.6663998954        2.7728092484        6.1966319506
 C       -15.5363972553        2.9841723080        4.8224789938
 C       -14.7671176131        4.0189335311        3.8816335143
 O       -14.6612975442        3.7209579368        2.7051404527
 C       -14.0864426321        5.2629291332        4.3927877937
 C       -16.5470098473        2.1340466297        4.0603249707
 C       -16.3223184774        3.6195931566        5.9532739243
 C        -9.7745105936       -0.3266136550        5.7825942659
 C        -8.9532137025        2.0208107891        5.3419712243
 C       -10.8246563086       -0.2122698788       -0.2842258383
 C        -9.7818947974        1.3514336527       -2.0110904277
 C       -12.3788646375        8.1151774033       -0.3613907105
 C       -14.1246650762        7.0435323546       -1.9399180394
 C        -9.3505100527        5.8993311578       -6.7174959894
 C        -8.9148124248        3.5349657241       -6.0757345764
 C        -2.5407853011        6.5523751189       -3.8377740886
 C        -1.3321055733        4.2071515994       -3.5532951189
 H        -2.8611568288        3.7587267936        0.0900094126
 H        -1.4382904534        3.5004535939       -1.0352672468
 H        -2.9073279464        3.0409404569       -1.6143947310
 H        -3.9748703641        5.1635720324       -5.9123558501
 H        -4.9627072311        6.0710470406       -4.8765512629
 H        -6.1667119930        3.6909455359       -4.4940104071
 H        -5.9814396243        3.7135547342       -6.1986033656
 H        -9.8703809915        7.3044835437       -4.4756846429
 H        -8.3828097794        7.1315777754       -3.6466708722
 H        -9.6453495231        7.7417980140       -2.0321048858
 H        -9.7266150894        6.0564667179       -1.7266682271
 H       -13.5213561580        4.5383085082       -2.1050494939
 H       -13.8011209495        3.6384763713       -0.6476912899
 H       -10.8718310813        4.0972041886       -1.6968585828
 H       -12.0074292886        2.9616019524       -2.5814253211
 H        -7.3747739040        1.4959419170        0.5944484852
 H        -8.3569818318        0.0530390561        0.7279002667
 H        -8.0622132524        2.0999710069        2.9422409937
 H        -7.3099351583        0.4812458143        2.9284813400
 H       -12.3754350257        0.6394369468        6.0916831759
 H       -12.2208619835       -0.3676425638        4.7280309767
 H       -14.5908372640        0.2855255371        4.6688998868
 H       -13.9148835368        1.3051838428        3.3910204622
 H       -14.2357837407        6.1290462098        3.6823405951
 H       -13.0064344473        5.1466192160        4.5899017909
 H       -14.5413498407        5.6366973992        5.2796702176
 H       -16.7985959880        1.2320319306        4.6063857544
 H       -16.1743713809        2.1363071840        3.0258603966
 H       -17.4993418823        2.7457195842        4.0414037865
 H       -16.9144738496        4.4776389592        5.5082285015
 H       -15.5819702753        3.8625385401        6.7066847404
 H       -16.9916823042        2.8578062540        6.3531594850
 H       -10.3228344130        0.0366727885        6.5990341275
 H        -8.7925155917       -0.5551669483        6.0884807270
 H       -10.2087323550       -1.2268292928        5.2988816337
 H        -9.1830740900        2.9159933191        4.8121714612
 H        -7.9069821476        1.9161963667        5.3327701276
 H        -9.4237022251        2.2421804500        6.3197496354
 H       -10.0463413327       -0.8290437713       -0.5944294305
 H       -11.7432322530       -0.4042602337       -0.8782595751
 H       -11.0380888322       -0.2594305911        0.7850856747
 H        -9.6333293073        2.4689803286       -2.3127477958
 H       -10.4853513299        1.0006909548       -2.7537397129
 H        -8.8518035202        0.7549113267       -2.0370041732
 H       -13.1841779300        8.2362446779        0.3427877767
 H       -12.4184739281        9.0695573939       -0.8562528226
 H       -11.4402746252        7.9639093285        0.2086735483
 H       -14.9348887772        6.9560139438       -1.2094180248
 H       -14.2561572254        6.2813220240       -2.7322353724
 H       -14.1655345011        7.9589335147       -2.4599639468
 H        -9.1163045264        5.8400215318       -7.7378472344
 H        -9.1022018265        6.9729946442       -6.4963080884
 H       -10.4094600888        5.8443463838       -6.6596480909
 H        -9.9127006701        3.5400470806       -6.4663879609
 H        -8.8955154574        2.9138728945       -5.1818342175
 H        -8.1950650437        3.1750095164       -6.8604675753
 H        -1.8005022178        7.1019745761       -3.3222161399
 H        -3.4909193363        7.0540446094       -3.6575905430
 H        -2.2710927614        6.6012111190       -4.8826457564
 H        -0.8474332629        4.5993593915       -4.4453012875
 H        -1.6025081574        3.1733431194       -3.6984280589
 H        -0.6071081808        4.2270954521       -2.7160554039
 Na      -12.2389905793        3.5512525350        2.0064558056
