117

 C        -7.2027734865       -0.4309428345       11.0377348093
 C        -6.3886510705        0.6920002696       10.4691768547
 O        -6.3623268181        1.8163242436       10.8959209805
 C        -5.5153764364        0.1899456222        9.2348205489
 C        -6.5774309272        0.0990388844        8.0536133425
 O        -7.2144296439       -0.8880888364        7.8661228064
 C        -6.5273346581        1.2427619665        6.9621402885
 C        -7.5478144848        1.0658600483        5.8004186499
 C        -6.9886839693        1.6067022174        4.4160484000
 O        -6.0143002687        2.3384175906        4.4391231608
 C        -7.6182157385        1.2217220607        2.9757605076
 C        -8.7386485137        2.3331750145        2.9229383247
 O        -9.7918899978        2.0790312869        3.4276067547
 C        -8.4091166890        3.7564394405        2.2793069985
 C        -9.5261047599        4.7217356811        2.4310496345
 C       -10.1053355294        5.0516454862        1.1051542545
 O        -9.6332670886        4.6443297553        0.0807130539
 C       -11.2301840737        6.0989547924        1.1196072592
 C       -12.4748591952        5.6478961410        0.3222519531
 O       -12.8512038919        6.1227954199       -0.7062679150
 C       -13.3341968981        4.4555632799        0.8579987461
 C       -13.9440945533        3.7933020629       -0.3035272960
 C       -13.1455681274        2.5082214163       -0.6719940948
 O       -12.6293864819        1.9910617036        0.3193438323
 C       -13.1497387386        1.7429977554       -2.1240832684
 C       -12.3371737848        2.6613833161       -3.1077910048
 O       -11.4888227002        3.4130658630       -2.5891012513
 C       -12.4872917492        2.3304688539       -4.5081394078
 C       -11.4848861870        2.9499183527       -5.4662396348
 C       -12.0539029235        3.5933167049       -6.6931767509
 O       -13.2153874498        3.5074606845       -6.9442679113
 C       -10.9228277829        4.3045705632       -7.8465644219
 C       -10.4859007764        5.5567688897       -7.1173953193
 O        -9.4908138893        5.5449376817       -6.3696900648
 C       -11.3686237839        6.8298150584       -7.2199852961
 C       -11.2713507728        7.7829052277       -5.9167726506
 C       -10.5049248579        7.1267998499       -4.7967232214
 O       -11.1768389150        6.3710281937       -4.0578918728
 C        -9.1161316663        7.6319065436       -4.2517656114
 C        -8.2167849688        6.3112033136       -4.0100248438
 O        -8.4241762888        5.4974362687       -3.1409534979
 C        -6.9712669948        6.0994815352       -4.8962044443
 C        -8.5515339730        8.7565318442       -5.0679746014
 C        -9.5449710269        8.1422163039       -2.8554031475
 C        -9.7072436940        3.3682767030       -8.0029458546
 C       -11.5421430948        4.6705416536       -9.2085099792
 C       -12.2792725613        0.4793988533       -1.9140104617
 C       -14.5435348259        1.3330241277       -2.4801608958
 C       -11.7928604207        6.3032690089        2.6125135205
 C       -10.5892086691        7.4525259418        0.7514004721
 C        -6.5084859694        1.3704028997        1.8921711104
 C        -8.2097376873       -0.2232176443        3.1430338289
 C        -4.5947014204        1.2840934727        8.8835107348
 C        -4.7455942129       -1.1135364903        9.3126658452
 H        -7.9346970065       -0.7756538306       10.3101373636
 H        -7.8365089990       -0.1124630511       11.8640799327
 H        -6.5515305393       -1.2813074515       11.4062987168
 H        -5.5421786621        1.1852036356        6.6294122028
 H        -6.6543762846        2.1965651099        7.5065875752
 H        -8.5884141602        1.4717131403        5.9557720815
 H        -7.7468626324       -0.0373349934        5.7326430919
 H        -8.2350021609        3.5638239350        1.1778866990
 H        -7.4970973716        4.1558796112        2.7510170905
 H        -9.0772464584        5.6533719269        2.8821816652
 H       -10.2571147184        4.3479464972        3.1048708282
 H       -14.0939832433        4.8422188405        1.5170678950
 H       -12.8805980685        3.7481101849        1.5538861108
 H       -14.1807716301        4.5294885490       -1.1110693706
 H       -14.9043236009        3.2873511909        0.0172189759
 H       -13.5388168022        2.6164487753       -4.7163654115
 H       -12.5698073267        1.2741640896       -4.6298949024
 H       -10.7828322662        2.2205382991       -5.8018712252
 H       -10.8668590536        3.7152553747       -4.9954680819
 H       -12.4026625155        6.5166724758       -7.3836959695
 H       -11.1387737688        7.3546941145       -8.1644149624
 H       -12.2143069460        8.1263567975       -5.5519769000
 H       -10.7914463785        8.7324296032       -6.0778651946
 H        -7.1235306254        5.2439423781       -5.4723794613
 H        -6.0407410641        6.0656552072       -4.2820789030
 H        -6.9073456633        6.8933380993       -5.6259941039
 H        -9.2724157167        9.6346002626       -5.1120159311
 H        -8.1739586415        8.5593761713       -6.0281880034
 H        -7.7557375374        9.0760792162       -4.4495718066
 H        -9.7000423844        7.2928565449       -2.1790557823
 H       -10.4562736029        8.7629708486       -2.7463025616
 H        -8.6927204441        8.8087972915       -2.3799294480
 H        -9.9383892806        2.3176318776       -7.9430543115
 H        -9.0707696026        3.5780383642       -7.1425359968
 H        -9.2594076210        3.5450680032       -8.9493501465
 H       -11.7210313993        3.7354346330       -9.6809248690
 H       -10.8437455989        5.1596804086       -9.8749228739
 H       -12.3481883602        5.3318301257       -9.1322242723
 H       -12.6288793383       -0.0642877636       -0.9989401730
 H       -11.2286893157        0.7445242281       -1.8332515485
 H       -12.3830228002       -0.1163650149       -2.8418707205
 H       -14.7535347936        0.5805332614       -1.8027772793
 H       -14.4982223399        1.0291509977       -3.5715767689
 H       -15.3370203992        2.0922215496       -2.3042225218
 H       -12.6215495331        7.0492969096        2.6211353624
 H       -11.0076417932        6.4914110397        3.3171345334
 H       -12.2431021717        5.3477158795        2.9257584828
 H        -9.7718403059        7.1357854093        0.0643089056
 H       -10.2388626017        7.8796173008        1.7108666139
 H       -11.2842042495        8.1623401278        0.2868859765
 H        -5.7355593620        0.5619846828        1.9968447878
 H        -5.9945294084        2.3494313842        2.0051193457
 H        -6.8672901717        1.2946046613        0.8634528157
 H        -8.9135437659       -0.1503930236        3.9482150470
 H        -7.5003399652       -0.9606034079        3.4492538791
 H        -8.7149219254       -0.3974699511        2.2218644084
 H        -5.0310170429        2.1975613709        8.6188806131
 H        -4.0059053020        1.0355823682        8.0554960153
 H        -3.9005582093        1.5824688671        9.7072131404
 H        -5.3406777079       -1.9910603118        9.2502646317
 H        -4.0954407993       -1.0992486821       10.1689340032
 H        -4.1626276211       -1.2107789552        8.3937617137
 Na      -10.4658468303        5.2361557371       -2.0328762013
