117

 C        -2.0377588104        3.7746282520       -1.2061451536
 C        -2.6934783055        4.9113939140       -2.0043970014
 O        -3.4305216122        5.6843658940       -1.4008910346
 C        -2.5420084230        5.0021789032       -3.5549992574
 C        -3.7889784427        4.2368047578       -4.0489250600
 O        -4.1201863557        3.2076607051       -3.3949585377
 C        -4.5685878649        4.6746937113       -5.2464589690
 C        -6.0257985869        4.1389506289       -5.2040209728
 C        -7.0145229813        5.3261923921       -5.3516820061
 O        -6.6635758056        6.4899500738       -5.3423658840
 C        -8.5767334583        4.9310068382       -5.2079493279
 C        -9.2781056809        5.4611687080       -3.9450764003
 O        -9.4319366529        4.6982784853       -3.0242838215
 C        -9.6710629399        6.9151760512       -3.9122028844
 C       -10.4826572331        7.4660694112       -2.7833174641
 C       -11.8096207199        6.8177092226       -2.6148539419
 O       -12.3562577697        6.2376596319       -3.5505051962
 C       -12.5870588357        6.9231875584       -1.2225851044
 C       -12.3698753557        5.5124551973       -0.5719625899
 O       -12.0524870325        5.4272424529        0.5949598516
 C       -12.7004326586        4.2479156522       -1.3912372387
 C       -11.5355021355        3.2748901368       -1.5342878874
 C       -11.6557411383        1.9904915321       -0.7791143101
 O       -12.6869980022        1.8003011655       -0.1357979020
 C       -10.4048181512        1.0163920623       -0.5438323112
 C        -9.7529642893        1.5221391069        0.7923679004
 O       -10.1968990415        2.4579983349        1.4239685000
 C        -8.4532304548        0.8666100288        1.1971636326
 C        -8.1910742326        1.0244452845        2.7010969725
 C        -9.4414652922        0.4891185875        3.4610551445
 O       -10.0674083887       -0.4719077637        2.9858427689
 C        -9.9561544926        1.1327107571        4.9229672388
 C       -11.3884596591        1.6214037618        4.6147814232
 O       -11.5732034928        2.6168596615        3.9397638730
 C       -12.5621250008        0.7731643767        5.2195917780
 C       -13.9534709922        1.2154135330        4.7261466459
 C       -14.4096506446        2.5056977832        5.3934511242
 O       -14.1681864757        2.8198714570        6.5791158035
 C       -15.5345964689        3.3732185080        4.7129505234
 C       -14.7139864815        4.2968039727        3.7079716764
 O       -14.4504986489        3.7382767760        2.6135830294
 C       -14.3084567737        5.6689751591        4.0979126595
 C       -16.5195596916        2.5345069784        3.8581940286
 C       -16.2737895456        4.2576063831        5.7153772541
 C        -9.8787786597       -0.0315891172        5.9301138364
 C        -9.1344234453        2.4183388294        5.2380142243
 C       -10.7726743487       -0.4937705499       -0.4900593046
 C        -9.3274386358        1.2522209786       -1.5188969841
 C       -12.0759346518        8.0020432713       -0.2701240543
 C       -14.1091488981        7.1294690917       -1.5215597741
 C        -9.3220549045        5.4949243918       -6.4449373520
 C        -8.6398763071        3.3886986761       -5.3165312619
 C        -2.5694528519        6.4824642175       -4.0758930278
 C        -1.2594872882        4.3105488636       -4.1714146473
 H        -1.8739839663        4.0511864623       -0.1986403696
 H        -0.9949474505        3.6044350654       -1.5788850363
 H        -2.5138719505        2.7669593466       -1.2985918915
 H        -4.1784492233        4.4050309428       -6.2362408294
 H        -4.6374163208        5.7442837396       -5.2476562212
 H        -6.1264558715        3.7135621513       -4.2024896986
 H        -6.1960519210        3.3581636059       -5.9378195371
 H       -10.1792386771        7.0753313973       -4.8580197524
 H        -8.6975806353        7.4106363696       -4.0154464862
 H       -10.4706024512        8.5711991477       -2.9792804698
 H        -9.8556818399        7.3500656420       -1.9467955032
 H       -12.9940980491        4.4960300601       -2.4358157256
 H       -13.5539923346        3.7546619057       -0.9391936213
 H       -10.5938602849        3.7149282917       -1.0895584177
 H       -11.3756308579        3.1238511697       -2.6337744697
 H        -7.7164677396        1.3327263023        0.6112060867
 H        -8.6024797223       -0.1829658789        0.9113917717
 H        -7.9912825323        2.1161860991        2.8616412338
 H        -7.2441084865        0.5001395373        2.8502305202
 H       -12.4162784282        0.8164498215        6.2964133068
 H       -12.4420277088       -0.2598850436        5.0044385487
 H       -14.7201622855        0.5037021581        5.1667620920
 H       -14.0193392101        1.2170774746        3.6136294179
 H       -13.2483661635        5.7603149201        4.1905642033
 H       -14.8211557388        6.0203646169        4.9909901946
 H       -14.6840136114        6.3799902145        3.3165466913
 H       -17.0273364176        1.8638270476        4.6085850918
 H       -15.9618216262        2.0867547383        3.0060416948
 H       -17.1393622248        3.2749794681        3.4452962551
 H       -16.8031485275        5.0081987741        5.1349607849
 H       -15.4898291960        4.5214662008        6.4608941768
 H       -17.0459747543        3.6229922498        6.1818769232
 H       -10.2310634555        0.2368799226        6.9115337182
 H        -8.8686242369       -0.2934323538        6.0461705108
 H       -10.4435729549       -0.8525626659        5.4947582310
 H        -9.2566857295        3.1640723860        4.4610427071
 H        -8.0580922157        2.2036711900        5.3955856275
 H        -9.4590772589        2.8025854915        6.1794632455
 H        -9.8728229046       -1.1287507056       -0.2732657777
 H       -11.1972974740       -0.7014555335       -1.4227064371
 H       -11.4410950776       -0.6018543756        0.3344946761
 H        -8.9636875067        2.2579556723       -1.5139464600
 H        -9.6697196659        0.9914508590       -2.5901953692
 H        -8.5815885502        0.4555996537       -1.3147511443
 H       -12.5179805156        8.0131908127        0.7568656654
 H       -12.1927497077        8.9824140115       -0.7706810423
 H       -11.0095683670        7.9612531652       -0.1085032335
 H       -14.6836033053        7.0969774795       -0.6089430764
 H       -14.5447433283        6.4369047431       -2.2256887630
 H       -14.1366287347        8.1522075684       -1.9954811417
 H        -9.0510481154        4.8116630647       -7.3146573802
 H        -9.1653218704        6.4628245568       -6.7922215717
 H       -10.4024307218        5.4117399304       -6.3896606891
 H        -9.7044068091        3.1274352588       -5.2475166295
 H        -8.0493100257        2.9714063248       -4.4953311214
 H        -8.1963999046        3.0903597877       -6.2306540524
 H        -1.7276965751        7.0250484212       -3.6062510241
 H        -3.4819226664        6.9686929260       -3.7204224408
 H        -2.4969821390        6.6050945687       -5.1697933248
 H        -1.3549952234        4.3783565821       -5.2455019178
 H        -1.3040206277        3.2363439538       -3.9262653990
 H        -0.2664938624        4.6864801064       -3.8206146630
 Na      -12.2575369578        3.4570425904        1.6778678710
