117

 C        -1.8447163538        3.8447548812       -1.2518267070
 C        -2.6005273322        4.9441270635       -1.9798144124
 O        -3.3494404754        5.6962803228       -1.4270396698
 C        -2.5440626781        4.8862666899       -3.5812203679
 C        -3.8282510694        4.1034358533       -4.0995743768
 O        -4.1886145793        3.1622700041       -3.4846604979
 C        -4.5459314805        4.6089737344       -5.3568125190
 C        -6.0486821051        4.2001073478       -5.3107168893
 C        -7.0611068911        5.3309121493       -5.2439680399
 O        -6.7418917366        6.4849428703       -5.4169020868
 C        -8.6423378052        4.8098760250       -5.2627469368
 C        -9.3132263425        5.4580230383       -3.9508632433
 O        -9.5049763941        4.7800840122       -2.9613305986
 C        -9.6578983509        7.0385824544       -4.0178428292
 C       -10.4698566906        7.6075477794       -2.7920715095
 C       -11.8062297422        6.9075838092       -2.5958106092
 O       -12.2553302080        6.2137738451       -3.5053145745
 C       -12.5432756554        6.8832498523       -1.1858983754
 C       -12.3862255469        5.4468962951       -0.5241997940
 O       -12.0104180117        5.3492151282        0.6211685867
 C       -12.6914503800        4.2729869929       -1.4457254117
 C       -11.5089171730        3.3008400817       -1.6535250982
 C       -11.6697647842        2.0506206158       -0.7467551671
 O       -12.7259806541        1.7725460658       -0.1679188900
 C       -10.3973299662        1.1200251282       -0.5707646250
 C        -9.7687105548        1.5357150438        0.8693649891
 O       -10.3267727989        2.3237962526        1.6212472458
 C        -8.5095915616        0.7696091823        1.3089600405
 C        -8.2652291521        1.0751437321        2.7715043912
 C        -9.4517191557        0.5089197854        3.5438341066
 O       -10.0873214963       -0.4257506433        3.0367184150
 C        -9.9562936108        1.1042813713        4.8481411073
 C       -11.4449321052        1.5712780007        4.5336945076
 O       -11.6745847290        2.5685038004        3.8691750635
 C       -12.5893923310        0.8369190088        5.2493378572
 C       -13.9538753382        1.2785738314        4.6896608378
 C       -14.6033393062        2.4588276051        5.5146131031
 O       -14.2413948888        2.8078889148        6.6266002637
 C       -15.5334673870        3.4804051813        4.6575178884
 C       -14.6023873212        4.2829180316        3.6161546493
 O       -14.2641000200        3.7738081328        2.5619627626
 C       -14.3225321465        5.7330241725        3.9196351945
 C       -16.5325829794        2.6107297080        3.8559017942
 C       -16.2029656302        4.3538566900        5.7446140522
 C        -9.8780208893        0.2146530751        6.0723272786
 C        -9.1383278991        2.3717865090        5.2140343553
 C       -10.7503324538       -0.3635953383       -0.4242888974
 C        -9.2952209451        1.2130582035       -1.7220796115
 C       -12.0835867806        7.9953244088       -0.1950089906
 C       -14.0873524003        6.9650305001       -1.4167805739
 C        -9.2660670379        5.3124841423       -6.6224297761
 C        -8.7413033204        3.2823823912       -5.1139892965
 C        -2.4964747786        6.3948610436       -3.9729227902
 C        -1.1954915407        4.3464140025       -4.1258155010
 H        -1.9035363312        3.9487033719       -0.1068742165
 H        -0.7963266960        4.0264664484       -1.3880740377
 H        -2.0164575452        2.8284795596       -1.5798704117
 H        -4.1113650801        4.0582555017       -6.2266734232
 H        -4.4779689417        5.7050181039       -5.6147420022
 H        -6.0714393730        3.4892412017       -4.5252267687
 H        -6.3588716499        3.7416644846       -6.2393401682
 H       -10.3075832311        7.1399782321       -4.9217580301
 H        -8.7302168983        7.5131823084       -4.2358581746
 H       -10.6138195205        8.6559319733       -3.0137521535
 H        -9.7668855504        7.6147159530       -1.9082949785
 H       -13.0727046478        4.5755027615       -2.4421690471
 H       -13.4991709143        3.6610144425       -0.9747661356
 H       -10.4947265359        3.7572692038       -1.4353226076
 H       -11.5386804704        2.9182074322       -2.7011500612
 H        -7.6992132730        1.1684506009        0.6955300882
 H        -8.6964851492       -0.2886974787        1.1290694563
 H        -7.9761825014        2.1483583094        2.8353436428
 H        -7.3797683275        0.5459431544        2.9277271805
 H       -12.3983147305        0.9170102887        6.2734293415
 H       -12.4974200148       -0.2273398043        5.0141203543
 H       -14.6992069600        0.4295209419        4.7132524347
 H       -13.7843981067        1.5765998620        3.6760873448
 H       -13.3146789323        5.7189899041        4.3268212981
 H       -15.0174402234        6.3032171117        4.5483015798
 H       -14.2802580841        6.3074295585        2.9695909715
 H       -16.8253993412        1.8958580395        4.6041097846
 H       -16.0331283513        2.2077424572        2.9638499770
 H       -17.3443593860        3.3253938684        3.5716822228
 H       -16.7698315802        5.1454097989        5.3309475108
 H       -15.4245972754        4.5134463328        6.5002887746
 H       -16.8944884834        3.6033026999        6.1560574097
 H       -10.3730715201        0.7369588792        6.8280407532
 H        -8.8684290211        0.0991282629        6.4016091498
 H       -10.4233672749       -0.8088167786        5.8789162610
 H        -9.2932904057        3.1096408542        4.4290268718
 H        -8.0834325988        2.1759401165        5.3312892184
 H        -9.4133829604        2.7380351937        6.1570760850
 H        -9.8475091437       -0.8278078351       -0.0802854129
 H       -10.9445935613       -0.6854440038       -1.4849510546
 H       -11.5461074332       -0.6124219556        0.3502581330
 H        -8.9582657737        2.2628589683       -1.7846834355
 H        -9.6710887819        0.8939301520       -2.7322481907
 H        -8.4498493075        0.4867947680       -1.5131551768
 H       -12.5401570119        7.9403064624        0.7476323779
 H       -12.2410538978        8.9586236837       -0.6540346838
 H       -11.0580807519        8.0054127184       -0.0332449824
 H       -14.5401998137        6.6927443322       -0.4421864816
 H       -14.4077056998        6.2622848771       -2.1031103326
 H       -14.4178387869        7.9469468338       -1.7203218515
 H        -9.0591176303        4.6545926209       -7.3876148377
 H        -9.0265458733        6.3170200154       -6.9374038506
 H       -10.3563551714        5.3599490855       -6.5873946838
 H        -9.8359901615        3.1656450670       -5.1156332298
 H        -8.3683983971        3.0683364313       -4.1153769671
 H        -8.2381635139        2.6855490203       -5.8675349254
 H        -1.7389249400        6.8874780889       -3.3476623305
 H        -3.4157803286        6.8756532815       -3.7920314534
 H        -2.2528602885        6.5399216082       -4.9927812979
 H        -1.0228183227        4.7914843514       -5.1315263327
 H        -1.2224380609        3.2391798755       -4.2694834904
 H        -0.3954250930        4.5685591108       -3.4947872918
 Na      -12.2196477476        3.4096816366        1.6935511409
