117

 C        -1.5517181188        3.9586524387       -1.2376418644
 C        -2.5167451112        4.8449158395       -2.0107852134
 O        -3.1775855196        5.6456326642       -1.3596330021
 C        -2.5449747650        4.8784448628       -3.6243827951
 C        -3.7956100083        4.1880597545       -4.1828930548
 O        -4.1114938904        3.1018663312       -3.6094603431
 C        -4.5987282116        4.7057557180       -5.4528088532
 C        -6.0147283277        4.1452479066       -5.5146635680
 C        -7.1278223645        5.1602855683       -5.2897168237
 O        -6.9089600124        6.3495071215       -5.3439940226
 C        -8.7019256858        4.7741880517       -5.2127909100
 C        -9.2728820052        5.6951946829       -4.0150815941
 O        -9.5005257106        5.1879065843       -2.9241447424
 C        -9.7255456112        7.1601414434       -4.1755629766
 C       -10.3650888933        7.5512276001       -2.8566474282
 C       -11.7010835808        6.8452230232       -2.6961076490
 O       -12.2885493585        6.2730003866       -3.5791692567
 C       -12.4605076863        6.7806344080       -1.1696461481
 C       -12.3259987172        5.3999593475       -0.5829419340
 O       -11.8215567970        5.2478017005        0.5376248564
 C       -12.7391618489        4.1879249223       -1.3885673812
 C       -11.5565878072        3.2585709928       -1.7026406261
 C       -11.5757392904        2.0530088156       -0.6974837939
 O       -12.6002354795        1.7827337303       -0.0960446849
 C       -10.3461733282        1.1145533013       -0.5899001378
 C        -9.6503143785        1.3685979232        0.7862711371
 O       -10.2195814515        2.0586108299        1.5968965416
 C        -8.3196306759        0.7729090192        1.3160306018
 C        -8.2932133120        0.9433689365        2.9059406428
 C        -9.5634252621        0.5504836890        3.6589873124
 O       -10.1433798577       -0.4980786577        3.4171830117
 C       -10.0415790141        1.3467032432        4.9828822995
 C       -11.4898112015        1.6996204382        4.6962990809
 O       -11.7181207753        2.5896711201        3.9014826615
 C       -12.6798476764        0.8398632231        5.1845203613
 C       -14.0244034574        1.3027453482        4.6144866661
 C       -14.6342827712        2.5172718071        5.3521204179
 O       -14.3456571453        2.6776668131        6.5283427943
 C       -15.5373014671        3.6835774939        4.6489871865
 C       -14.6019039692        4.3664439697        3.6532297323
 O       -14.2700263542        3.5913317208        2.7259154453
 C       -14.2016944966        5.7924031098        3.7263287685
 C       -16.5341709606        2.8344460544        3.9341185352
 C       -16.2224768370        4.6413122237        5.6280722642
 C        -9.8889553545        0.3437889047        6.2222168249
 C        -9.2588261746        2.6288702613        5.2160707264
 C       -10.9877755319       -0.3529498205       -0.5099348270
 C        -9.4060601131        1.3232771878       -1.7274965504
 C       -11.9826809133        7.9209621647       -0.1921166680
 C       -13.9824500390        6.9708690800       -1.4404481936
 C        -9.2380828882        5.0641474137       -6.6452871953
 C        -8.9681130277        3.2576175306       -4.7960142885
 C        -2.5793864064        6.3376856875       -3.9873653690
 C        -1.2906549253        4.1420322492       -4.1369425745
 H        -2.0959445694        3.5431395109       -0.4687363704
 H        -0.7070794596        4.4287680667       -0.7009487823
 H        -1.2460421270        3.0491207665       -1.7813769311
 H        -3.9649555624        4.4390445252       -6.3023916548
 H        -4.7981282730        5.7554901911       -5.4766454519
 H        -5.9978180873        3.2697110817       -4.8172257417
 H        -6.3204627879        3.8198777686       -6.5348706038
 H       -10.4161989386        7.1907340077       -4.9972863949
 H        -8.7780309864        7.7014058548       -4.4602679222
 H       -10.3710320162        8.6594545055       -2.6687984049
 H        -9.7114387488        7.1707991384       -2.1066800847
 H       -13.1540167563        4.4983487926       -2.3419269923
 H       -13.5216479909        3.6507479684       -0.8512120269
 H       -10.6514864573        3.7922425867       -1.7481684103
 H       -11.7005687779        2.7567000769       -2.6425447277
 H        -7.5196445094        1.3480297485        0.8173997156
 H        -8.2954873015       -0.2912897030        1.0262909582
 H        -7.9785761108        1.9464177755        3.0815005542
 H        -7.4037415832        0.3157219937        3.2120183243
 H       -12.6904979843        0.9110437540        6.3412722404
 H       -12.4739847109       -0.2194629486        4.9582200680
 H       -14.7476281651        0.5336975217        4.6628495926
 H       -13.8132227383        1.6727191837        3.5893953119
 H       -13.9114746652        6.1206331397        4.7229911650
 H       -15.1269341575        6.2761016345        3.4256566080
 H       -13.4803381356        6.1439652546        2.9946131421
 H       -16.8455098125        2.1201064169        4.7060958795
 H       -15.9543493061        2.2860873888        3.1933204655
 H       -17.2850182679        3.4738736677        3.5991735887
 H       -17.0127396097        5.0264648440        4.9979897716
 H       -15.5420678385        5.3712258321        5.9932002077
 H       -16.6343646173        4.0488567862        6.3965194405
 H       -10.3899737026        0.7361895327        7.1737213571
 H        -8.8139720503        0.1259885755        6.4178891898
 H       -10.4007640545       -0.5474012234        5.9649289233
 H        -9.4846385761        3.2634424478        4.3783798226
 H        -8.1826499345        2.5064780719        5.3409951215
 H        -9.5577917985        3.1125131731        6.1664326851
 H       -10.2253816230       -1.1708377508       -0.2827746648
 H       -11.5752059542       -0.5439578081       -1.3720094935
 H       -11.5441777962       -0.2337336823        0.3777009896
 H        -9.0198560119        2.3236411077       -1.7405609100
 H        -9.9077562833        1.0393071870       -2.6445091900
 H        -8.5958045455        0.6511345121       -1.6318830979
 H       -12.5585992649        7.7400664556        0.7316754439
 H       -12.0691996109        8.9495312154       -0.5095063283
 H       -10.9240290221        7.7936836638        0.0600329627
 H       -14.6176898538        6.5519767056       -0.6927047499
 H       -14.1551923124        6.4208971266       -2.4052839591
 H       -14.2583777791        8.0473933414       -1.4367974424
 H        -8.7348883183        4.4615748749       -7.4989033615
 H        -9.3077486078        6.1060783989       -6.8517529751
 H       -10.2890289582        4.7882856014       -6.6823829069
 H       -10.0317027871        3.0979302816       -4.8331574443
 H        -8.5638486417        3.0806341751       -3.7954078098
 H        -8.4825360896        2.6309416695       -5.5405940049
 H        -1.7102216319        6.8342913740       -3.6483012560
 H        -3.4509158298        6.8400400951       -3.5641674615
 H        -2.6681375379        6.3970827032       -5.0800931507
 H        -1.1377106327        4.2585790774       -5.1763105023
 H        -1.3358088357        3.0979661358       -3.9574592353
 H        -0.3953405335        4.6278211750       -3.6375462871
 Na      -12.2921761694        3.2543529959        1.6906010266
