117

 C        -1.5020414727        3.9187852349       -1.2512451815
 C        -2.5157852122        4.8610237634       -1.9862106399
 O        -3.1978401449        5.6081304041       -1.3534295215
 C        -2.5230112883        4.9471907689       -3.6015389342
 C        -3.8490654988        4.1417562426       -4.1243264311
 O        -4.1707944465        3.0464858467       -3.7544334910
 C        -4.6539227189        4.7642003793       -5.2431931904
 C        -6.0527824278        4.0880980531       -5.5031717478
 C        -7.1438371182        5.1521039832       -5.3089253064
 O        -6.7669865779        6.3017882515       -5.2401338332
 C        -8.7220187681        4.8084288354       -5.1839035541
 C        -9.3477120779        5.6126322357       -4.0559397594
 O        -9.3549768375        5.1790266051       -2.9244345479
 C        -9.7419028236        7.1480072274       -4.1891612910
 C       -10.4504757260        7.5863877754       -2.8969114387
 C       -11.7228153089        6.8313102090       -2.6628767814
 O       -12.2895331881        6.3446289945       -3.6340093109
 C       -12.4331071437        6.7706574139       -1.2810268296
 C       -12.2217587604        5.3666772158       -0.5926565142
 O       -11.7143480027        5.1831209962        0.4867160883
 C       -12.7467541895        4.1753524474       -1.4210595503
 C       -11.6456652719        3.1875675095       -1.7094273665
 C       -11.6111118772        2.0367173035       -0.6738365188
 O       -12.5978292463        1.8610153787        0.0599997196
 C       -10.3426064707        1.0250397609       -0.5659922168
 C        -9.6889443344        1.3216744241        0.9021691440
 O       -10.2423910257        2.1529911900        1.6167861928
 C        -8.3836036936        0.6702807570        1.3976810337
 C        -8.2429011204        0.8139686010        2.8694190407
 C        -9.5024216601        0.5327533251        3.7987994811
 O       -10.1658273399       -0.5233324454        3.6078328195
 C       -10.0255603689        1.3935126752        4.9716619100
 C       -11.5416131225        1.7396369802        4.6112871857
 O       -11.7185326885        2.7848830432        4.0345601108
 C       -12.7344628744        0.8527945564        5.1150671915
 C       -14.0743337068        1.3539813306        4.5955875902
 C       -14.6080318764        2.5974778002        5.4408167840
 O       -14.3880374358        2.7503500278        6.6296537790
 C       -15.5670816228        3.6230506757        4.6462359688
 C       -14.6265665718        4.2943215022        3.5653346465
 O       -14.2362771589        3.6141547285        2.6114568389
 C       -14.1804839719        5.7174888786        3.6798735350
 C       -16.7675106189        2.8862843071        3.8761052016
 C       -16.1404182916        4.7437921010        5.6886660999
 C        -9.8863501974        0.4547704693        6.1968874029
 C        -9.3574169066        2.7329962791        5.2686962683
 C       -10.9079495918       -0.4411472146       -0.6203680289
 C        -9.2714097646        1.1758465326       -1.7409510190
 C       -11.8165566080        7.8248653988       -0.3017909839
 C       -13.9262864818        7.1252732482       -1.5914879034
 C        -9.3726172574        4.9853156193       -6.5147668606
 C        -8.9179142706        3.3052589295       -4.7344510660
 C        -2.4980786934        6.3925383019       -4.1151222166
 C        -1.4021069725        4.1157189898       -4.3077022256
 H        -1.8726283441        3.2245902097       -0.4619893315
 H        -0.8414535596        4.5789830319       -0.7096337778
 H        -0.9346377319        3.2365498446       -1.8600241164
 H        -4.0522170692        4.7547637165       -6.1249384338
 H        -4.9382377254        5.7655860945       -5.0574608532
 H        -6.1492439692        3.2153785674       -4.7966248382
 H        -6.0885358499        3.7358276345       -6.5643643568
 H       -10.4927107634        7.2304779142       -4.9822543440
 H        -8.8545082560        7.7334250625       -4.4570382814
 H       -10.6915560178        8.6710336352       -3.0109268027
 H        -9.7832175483        7.5550498527       -2.0669061206
 H       -13.1028573587        4.5402158587       -2.3954176855
 H       -13.5608916897        3.7308667671       -0.9129636237
 H       -10.6852900200        3.7255648654       -1.6445613996
 H       -11.6654385486        2.7014387390       -2.6790597209
 H        -7.6769764285        1.2639988924        0.8807938016
 H        -8.3329991409       -0.3696721325        1.0287373340
 H        -7.8335089333        1.8812716390        2.9564615053
 H        -7.3944033527        0.1943918437        3.1333655261
 H       -12.8415409065        0.7703686041        6.2350401947
 H       -12.5015033404       -0.1645183528        4.7684052946
 H       -14.8454459536        0.5742909537        4.8703737069
 H       -14.0316928606        1.6286327831        3.5458140973
 H       -14.2638852246        6.1316388597        4.6328966793
 H       -14.7668292062        6.2915558137        2.9624994064
 H       -13.1437646234        5.8680076391        3.3189542142
 H       -17.3958339734        2.3800659708        4.6189877945
 H       -16.2698365214        2.1355073285        3.2654880248
 H       -17.2476184425        3.7252417916        3.4451448141
 H       -16.9161854263        5.1998445753        5.1413791809
 H       -15.3102890002        5.4550009899        5.8855863117
 H       -16.4688980244        4.2291751587        6.6025253428
 H       -10.2666814062        0.8605655348        7.0836321389
 H        -8.8707747070        0.2046861535        6.2810159888
 H       -10.4933515632       -0.5314398501        5.9795800921
 H        -9.5797994522        3.3276008990        4.3535595826
 H        -8.2550690996        2.7386175887        5.4849080042
 H        -9.8154559257        3.2062825603        6.1096067607
 H       -10.1081773697       -1.1417005734       -0.7403173804
 H       -11.5720795217       -0.5270404616       -1.4343648238
 H       -11.3924483696       -0.6307546596        0.3168603083
 H        -8.7370175233        2.0277941187       -1.5266846705
 H        -9.6835891632        1.1203974398       -2.7603299247
 H        -8.5059886736        0.4234551337       -1.6517010890
 H       -12.3865880947        7.7107228584        0.6844381022
 H       -11.7629691957        8.9504369704       -0.5919812899
 H       -10.7711557028        7.5342541271       -0.1019745163
 H       -14.5820695108        6.7915057394       -0.7457627693
 H       -14.2038637691        6.6598672229       -2.5205879749
 H       -14.0805284052        8.2493122100       -1.4937454844
 H        -8.7541550678        4.5016488905       -7.2959598141
 H        -9.5666865063        6.0314597991       -6.7561252189
 H       -10.4225666989        4.5331163283       -6.6321043060
 H       -10.0024491191        3.1653473080       -4.5870617433
 H        -8.3886284239        3.1889493566       -3.7907263280
 H        -8.5942417456        2.6527067904       -5.5024126577
 H        -1.4794086354        6.7537140205       -3.7855089591
 H        -3.2261934916        7.0487605466       -3.6311213389
 H        -2.6187287109        6.4519645753       -5.2204540797
 H        -1.6962307478        4.0680163781       -5.3557893912
 H        -1.3024646466        3.0512938042       -4.0294941109
 H        -0.4654171279        4.6508966728       -4.3498524323
 Na      -12.2821057368        3.2003427245        1.6693442442
