117

 C        -1.5018028814        3.9705383076       -1.3829092600
 C        -2.4063255488        4.9089531138       -2.0702979289
 O        -3.2368349925        5.5308231884       -1.4431030092
 C        -2.5833183864        4.8792517508       -3.6648283500
 C        -3.9408545803        4.0652393088       -4.0759913836
 O        -4.1373887925        2.9595200069       -3.7075635405
 C        -4.7163456221        4.8409151762       -5.1285629819
 C        -6.0633618176        4.1360247657       -5.4404990736
 C        -7.1667689126        5.1945393616       -5.2757197884
 O        -6.9237591806        6.3800401080       -5.1348330268
 C        -8.6355591786        4.7893202411       -5.1611099616
 C        -9.2068366147        5.6071660547       -3.9407605946
 O        -9.2894768926        5.0896345858       -2.8383225487
 C        -9.7045473152        7.1043586330       -4.2310288886
 C       -10.4680403219        7.6901447770       -3.0341436895
 C       -11.7448987891        6.8709308029       -2.7381804551
 O       -12.3135190269        6.3155701936       -3.6506656718
 C       -12.3644495902        6.7657955793       -1.2818296545
 C       -12.2603868418        5.3780856075       -0.7393680442
 O       -11.6977244212        5.2262229260        0.3308053349
 C       -12.7541321971        4.1376965693       -1.5380154189
 C       -11.6198878130        3.0732463408       -1.7354220554
 C       -11.5805541493        1.9168212892       -0.7214470509
 O       -12.4712013503        1.7512358990        0.0861007202
 C       -10.3993932223        0.9931980164       -0.4828999023
 C        -9.7936572568        1.3524378364        0.9104556618
 O       -10.2107509729        2.1973937606        1.6557202588
 C        -8.5633430880        0.5251173493        1.4384709349
 C        -8.2711544727        0.7921403878        2.9863584787
 C        -9.5410874220        0.4385344421        3.8094838959
 O       -10.0919805928       -0.5946062099        3.5928144608
 C       -10.0793116523        1.4727308743        4.9677931263
 C       -11.5833823965        1.8480412871        4.6052644842
 O       -11.8322025310        2.9414707752        4.1101594219
 C       -12.6966933931        0.9348598640        5.0303388835
 C       -14.1403270155        1.4428597501        4.6815659269
 C       -14.6608298327        2.6401832735        5.5044371012
 O       -14.3931103185        2.8025529336        6.6368258203
 C       -15.5492827585        3.6778790536        4.5591473268
 C       -14.6686049731        4.2664396899        3.4978668702
 O       -14.3689752932        3.5797426321        2.5540084714
 C       -14.1021805708        5.6888958248        3.5834636208
 C       -16.8823483804        3.0091530683        3.9301017332
 C       -16.0512387122        4.6370294939        5.6794598121
 C        -9.9349881737        0.5800131578        6.2661842370
 C        -9.3048657016        2.8180989801        5.2640607660
 C       -10.8359864778       -0.4877536960       -0.6446244146
 C        -9.2671506096        1.1110031825       -1.5680775542
 C       -11.6491544372        7.7765816751       -0.3335629077
 C       -13.8172157086        7.2070167798       -1.5501353458
 C        -9.5103364277        4.9769985222       -6.4782352968
 C        -8.7624823644        3.2775110194       -4.7206541585
 C        -2.4312155219        6.3384584116       -4.1007919267
 C        -1.5014888730        4.0828359126       -4.4402290710
 H        -2.0179778445        3.1515470298       -0.7574190295
 H        -0.9246897925        4.5176375639       -0.6641124703
 H        -0.8773445299        3.3626315683       -1.9940733146
 H        -4.1296839140        4.8722672466       -6.0325269091
 H        -4.9700257420        5.8754452114       -4.8448124826
 H        -6.2187924533        3.3903880642       -4.6613005468
 H        -5.9076945350        3.6063680067       -6.3860452969
 H       -10.4169438025        7.0413913453       -5.0926481950
 H        -8.8642445155        7.6949610709       -4.5073037339
 H       -10.7067197590        8.6991108329       -3.2734426155
 H        -9.7507729396        7.7989810568       -2.1512586745
 H       -13.1134332235        4.4205255451       -2.5230930051
 H       -13.5696055243        3.6614176769       -0.9762054642
 H       -10.5767791812        3.5287054767       -1.7767171206
 H       -11.7136696980        2.4986960429       -2.6966854341
 H        -7.7719649974        0.6840995862        0.7216628042
 H        -8.8926604180       -0.4942969873        1.3866828211
 H        -7.7912490829        1.7981014680        3.1102093135
 H        -7.5121989997        0.0812252202        3.2656704071
 H       -12.6895273302        0.6590623938        6.0367842617
 H       -12.4820451152        0.0076453534        4.4518208101
 H       -14.8294753818        0.5905937291        4.9923620517
 H       -14.2128635187        1.7471706605        3.6402454606
 H       -14.3093287940        6.2110213602        4.5299221319
 H       -14.2763929310        6.3378899687        2.7272646683
 H       -13.0335776688        5.5397859910        3.5545880043
 H       -17.5640381943        2.7782123330        4.7164315073
 H       -16.5254156457        2.1137461553        3.4747033199
 H       -17.2770432235        3.9074350230        3.3507175115
 H       -16.6636681572        5.4305936192        5.2188101887
 H       -15.1133256419        5.0413892522        6.1033253511
 H       -16.5567167050        3.9511786997        6.3935247298
 H       -10.3295385364        1.0886900634        7.1113742425
 H        -8.8794225957        0.3598579866        6.3801853775
 H       -10.4614699859       -0.3543443471        6.2022356765
 H        -9.2898569192        3.4493144356        4.3514972023
 H        -8.2696888475        2.6123296856        5.5681554993
 H        -9.7756228440        3.3931376470        6.0760867245
 H        -9.9794125418       -1.0127287480       -0.8434387468
 H       -11.4169378813       -0.5460105736       -1.5945034543
 H       -11.3890590447       -0.9416620892        0.1941368707
 H        -8.6685382125        2.0278127453       -1.2943430633
 H        -9.6659983233        1.0779665101       -2.5559784737
 H        -8.4495145312        0.3724865762       -1.4716093351
 H       -12.1777418183        7.9651722132        0.6246324705
 H       -11.6143089189        8.7457318643       -0.8954267112
 H       -10.5513886146        7.5229262354       -0.1511800106
 H       -14.4174829150        7.0717951221       -0.5974028804
 H       -14.1814190322        6.5898023154       -2.3654710378
 H       -13.9083826055        8.2601622867       -1.6649722117
 H        -9.0295729158        4.4881166751       -7.2568925749
 H        -9.5782911287        6.0724551222       -6.7777833316
 H       -10.5651212852        4.6396172484       -6.4934115464
 H        -9.8071033144        3.1082962976       -4.4614489431
 H        -8.1542716621        3.1266294705       -3.8503664706
 H        -8.5319595129        2.6331605124       -5.5751782104
 H        -1.4048625386        6.5950035398       -3.6934418475
 H        -3.1245320044        7.0175655731       -3.5576397927
 H        -2.5009720799        6.5207038413       -5.1940857886
 H        -1.7974252176        3.9959172689       -5.5333306229
 H        -1.2989826130        3.0327396940       -4.1421240950
 H        -0.6404517015        4.6782304843       -4.5089010636
 Na      -12.2328454262        3.2619133544        1.7434721620
