117

 C        -1.4249028524        3.9449046954       -1.4643470798
 C        -2.4927898600        4.7064414266       -2.1293417665
 O        -3.2393070120        5.5350931670       -1.5885372974
 C        -2.5116193254        4.7983381790       -3.7247400435
 C        -3.8476161911        4.1385261854       -4.1158722389
 O        -4.1150117401        3.0161250691       -3.6054980747
 C        -4.7171919033        4.8750483249       -5.0725870318
 C        -6.1595443876        4.2879845854       -5.3497481066
 C        -7.2604248782        5.2935683825       -5.1799076795
 O        -7.0475725575        6.4934022982       -5.1455671364
 C        -8.6908825301        4.7104393723       -5.0771161468
 C        -9.2475360322        5.5743800011       -3.9020274792
 O        -9.2720563717        5.1288228736       -2.7542766146
 C        -9.6343276855        6.9695562810       -4.2398435446
 C       -10.4163104426        7.6711479098       -3.1557811777
 C       -11.7152123975        6.8843736482       -2.8746173624
 O       -12.3144413070        6.2245661985       -3.7011459009
 C       -12.2580986011        6.9089931066       -1.4268694776
 C       -12.1507501715        5.2948749228       -0.8572901071
 O       -11.7578056586        5.1263969831        0.3059263565
 C       -12.7001761287        4.0661879904       -1.6294570685
 C       -11.5850159667        2.9825781996       -1.7849367689
 C       -11.5833447459        1.8682007601       -0.6428352312
 O       -12.5504685181        1.6860819767        0.0451841301
 C       -10.2785249465        0.9657824565       -0.4561757009
 C        -9.8017887722        1.2554459101        0.9832010687
 O       -10.1739015019        2.2141318887        1.6298251680
 C        -8.7047656765        0.2744930929        1.5711044826
 C        -8.3795835414        0.8186526230        2.9901500896
 C        -9.5674046244        0.5168202022        3.7920962620
 O       -10.1091213591       -0.5431841642        3.6761630829
 C       -10.1235240113        1.5115468846        4.9770115423
 C       -11.6237477872        1.9764441497        4.7103948519
 O       -11.8418223195        3.0580740694        4.1399102665
 C       -12.6855032933        0.9114637894        4.9904911518
 C       -14.1528216509        1.3307493946        4.6345977124
 C       -14.6570033815        2.6249912609        5.3494791818
 O       -14.4250242331        2.8724116704        6.5266985688
 C       -15.5474246011        3.7212815468        4.6695729903
 C       -14.6652983981        4.2076163856        3.5071095165
 O       -14.5560632141        3.5238103327        2.4782153719
 C       -13.9876360357        5.6113928780        3.5359910149
 C       -16.8053814652        3.0743889048        4.0464268473
 C       -16.0822549889        4.8087237706        5.7606017582
 C       -10.0742709369        0.7345043403        6.3204635206
 C        -9.2330267190        2.7044532183        5.0626955353
 C       -10.8460841944       -0.5422821661       -0.5422094618
 C        -9.1356928543        1.2738329082       -1.4887891769
 C       -11.5405021450        7.7646675537       -0.3636014792
 C       -13.8144170395        7.2737326516       -1.4026383027
 C        -9.5167096772        4.9778555042       -6.3665130394
 C        -8.6940934669        3.1556568066       -4.7611895169
 C        -2.4858673419        6.3014041878       -4.0888036735
 C        -1.4705944238        3.9705936941       -4.5067792433
 H        -1.7387130604        3.0199308876       -1.0639890094
 H        -1.0052733560        4.5162112147       -0.6093937679
 H        -0.6374667044        3.5652132262       -2.1439356967
 H        -4.2257350985        4.9305881492       -6.0729471708
 H        -4.8602184397        5.9181576210       -4.6822835044
 H        -6.3458995317        3.4391144149       -4.7441050113
 H        -6.0405076190        3.9003405962       -6.3408640321
 H       -10.2049101505        6.9860545247       -5.1675042864
 H        -8.6529501423        7.4664607464       -4.3806961305
 H       -10.6229713025        8.6897683096       -3.4954143882
 H        -9.7703919651        7.8456075894       -2.2463570001
 H       -13.0591654289        4.3672462660       -2.6103052114
 H       -13.5289605227        3.5694484094       -1.0321183609
 H       -10.5583816993        3.3823741219       -1.9308407034
 H       -11.7600528195        2.3230474331       -2.6850626058
 H        -7.8979367738        0.3267485297        0.7931163922
 H        -9.1248234241       -0.7122376749        1.6009991405
 H        -8.1808208179        1.8218075412        2.8744849927
 H        -7.4740409025        0.3608146455        3.4519396476
 H       -12.6950647333        0.7043260435        6.0360845302
 H       -12.3659815399        0.0150758242        4.4612964020
 H       -14.8047309866        0.5278286132        4.9209802857
 H       -14.2079899929        1.6266593387        3.5669936454
 H       -14.4755649179        6.2599361718        4.3146516815
 H       -14.0116206009        6.1305399334        2.5744056252
 H       -12.9329276268        5.5863560853        3.7909536020
 H       -17.5818704720        2.7821002243        4.7535961089
 H       -16.3331633739        2.2301134649        3.5860436442
 H       -17.1594253153        3.9001444431        3.4350097967
 H       -16.3114513085        5.7507152611        5.1852404375
 H       -15.2186845629        4.9981365399        6.3635724102
 H       -16.8920842767        4.3341010029        6.2970039794
 H       -10.6241708252        1.3603887892        7.0747030387
 H        -9.0268718133        0.5280220727        6.6304001683
 H       -10.5504326804       -0.1589544572        6.3137680722
 H        -9.1143636954        3.2632549347        4.1604009952
 H        -8.2676575580        2.3369564074        5.3654888306
 H        -9.6006246367        3.4171736372        5.8537188422
 H       -10.0586941454       -1.3473252690       -0.3505175049
 H       -11.3043177473       -0.7727193938       -1.5368239430
 H       -11.6368507000       -0.5580590239        0.2182101033
 H        -8.7002231053        2.3244991689       -1.4032215516
 H        -9.5679259752        1.0205752124       -2.4569528114
 H        -8.2024344220        0.6976907098       -1.3420090545
 H       -12.1462784630        7.8474964911        0.5112141022
 H       -11.4362783478        8.7494353077       -0.7213542479
 H       -10.5236223521        7.4172254451       -0.1201552633
 H       -14.1279328955        7.3356553994       -0.3970359698
 H       -14.3446445149        6.4781254314       -1.9605622712
 H       -14.0444564832        8.2297874909       -1.7709608576
 H        -9.2201574987        4.3012741726       -7.1761057768
 H        -9.2182486248        5.9563592964       -6.7340048107
 H       -10.5608940832        4.9966997468       -6.3077955838
 H        -9.6600604870        2.7444697847       -4.5504241498
 H        -8.0750086199        3.0436094183       -3.8707808397
 H        -8.2974479877        2.6546030227       -5.6715837951
 H        -1.5852456279        6.7887915455       -3.7850565937
 H        -3.3256091163        6.8092056548       -3.5686642362
 H        -2.6481185026        6.4056240820       -5.1697741623
 H        -1.5629130981        3.9880268095       -5.6021159716
 H        -1.5225039197        2.9421335546       -4.2200915876
 H        -0.4563947731        4.4011833695       -4.3306042311
 Na      -12.2076222150        3.4443657182        1.8172247769
