117

 C        -1.3427901206        3.9108420488       -1.4788092364
 C        -2.3863082468        4.7710316077       -2.2319222608
 O        -3.2107961636        5.3837891606       -1.6093168823
 C        -2.4586445829        4.7593224449       -3.8130670143
 C        -3.8739838109        4.1677060988       -4.1210735607
 O        -4.2368902674        3.0973046570       -3.6183649227
 C        -4.7271236021        4.9797625579       -5.1180668856
 C        -6.1392585443        4.2971377822       -5.3088059470
 C        -7.2523147577        5.2950108546       -5.1301125626
 O        -7.1040708144        6.5057876562       -5.2421984272
 C        -8.7063348651        4.6700779337       -4.9975556257
 C        -9.3544858190        5.4917225783       -3.8260652966
 O        -9.3384655497        5.1237873084       -2.6697522762
 C        -9.6531179821        6.9271781510       -4.2662163500
 C       -10.4949371513        7.6538206486       -3.1699857660
 C       -11.7163495913        6.8345489231       -2.8590076575
 O       -12.2405285423        6.2161833096       -3.7725590162
 C       -12.2586471061        6.7239435818       -1.3447961787
 C       -12.1753760980        5.2781199529       -0.8799317875
 O       -11.7928213750        5.1575802409        0.2685710093
 C       -12.5865192631        4.0922398635       -1.7062743466
 C       -11.5843993155        2.9401882423       -1.8146900547
 C       -11.5849590941        1.8923870484       -0.6830644231
 O       -12.5836439504        1.7254362839        0.0147797668
 C       -10.3451598458        0.9963935635       -0.4960102716
 C        -9.7379276042        1.1832910141        0.9545527593
 O       -10.1293566025        2.1362195206        1.6236217618
 C        -8.7414644419        0.2646676688        1.6593952896
 C        -8.4439864508        0.8396035517        2.9920920472
 C        -9.6619257892        0.5092246604        3.9690424065
 O       -10.3310779154       -0.5349814850        3.8478646064
 C       -10.1021544792        1.5710040909        5.0412294379
 C       -11.6108864725        1.9546445712        4.5971930187
 O       -11.8375800757        3.0824402402        4.2100677826
 C       -12.7744881247        1.0097505607        4.9712605849
 C       -14.1881474708        1.4324581215        4.5817753653
 C       -14.6251284107        2.6640528639        5.3739812599
 O       -14.2664380047        2.7316989564        6.5397482126
 C       -15.5675148544        3.7798626807        4.6071657934
 C       -14.7921485704        4.3034901034        3.4692220191
 O       -14.5931982288        3.5137114283        2.5130248623
 C       -13.8843258597        5.5195213735        3.5398319278
 C       -16.8673496309        3.0243711180        4.0389148229
 C       -15.9528137373        4.8933962228        5.6099794571
 C       -10.1863528823        0.8600936022        6.3699344104
 C        -9.1403608706        2.7932464680        4.9188569257
 C       -10.7791925897       -0.4705547842       -0.5058209324
 C        -9.1757796848        1.3260512140       -1.3537992421
 C       -11.4439561995        7.6680504816       -0.4474194392
 C       -13.7184271157        7.1912854123       -1.2975739517
 C        -9.4459094460        4.9220022746       -6.3150109517
 C        -8.7407161575        3.1487663604       -4.7825855123
 C        -2.4364780707        6.2674966183       -4.1748199228
 C        -1.3431864197        3.9306971271       -4.4879220677
 H        -1.8063612431        2.9598250202       -1.4540237767
 H        -1.2584579249        4.2202211931       -0.4326752198
 H        -0.3563054336        3.6141856055       -1.8574289223
 H        -4.2485839151        5.1860163508       -6.1117258295
 H        -4.9472862919        5.9390412559       -4.6274772026
 H        -6.2479556053        3.4507643130       -4.6225500312
 H        -6.1236016516        3.8115779684       -6.2757067916
 H       -10.1487745939        6.9145522288       -5.2250396232
 H        -8.6384495164        7.4175165812       -4.3388657766
 H       -10.7676057739        8.7340771534       -3.4262499890
 H        -9.8623721658        7.7710981487       -2.3294695332
 H       -12.7756414125        4.4209156699       -2.7546745041
 H       -13.5161891350        3.6579610663       -1.2801919671
 H       -10.5688907638        3.2741898311       -1.8622661903
 H       -11.7245311881        2.3813071372       -2.7410664592
 H        -7.8705667911        0.0819422324        0.9981859977
 H        -9.2881354889       -0.6969143365        1.8372261712
 H        -8.1771197283        1.8741645513        2.8737111806
 H        -7.5469727494        0.3203181789        3.3268804323
 H       -12.7654883049        1.0417553176        6.1132661029
 H       -12.6655686981       -0.0064459914        4.6402519788
 H       -14.7967900053        0.6323167911        4.8944667903
 H       -14.2240354735        1.6056882511        3.5089109329
 H       -14.3700295879        6.3406728974        4.0349848206
 H       -13.5607990197        5.8766950126        2.5496879355
 H       -12.9355312527        5.3152328368        4.1081829157
 H       -17.3840326598        2.5369019120        4.8853251586
 H       -16.3868914665        2.2704616643        3.4288004063
 H       -17.4733258875        3.7448599850        3.6549587248
 H       -16.0671239005        5.8050732975        5.0664056188
 H       -15.0648353041        5.0120995912        6.2313555561
 H       -16.8143720364        4.5500135803        6.1535431551
 H       -10.7935796244        1.4141517876        7.0912512153
 H        -9.1873061565        0.6513468171        6.7448499185
 H       -10.6874042353       -0.2060436767        6.2809016538
 H        -9.1958405041        3.3678458464        4.0160279144
 H        -8.1174608183        2.4181975086        5.0185581975
 H        -9.3761756811        3.4567144366        5.7275716808
 H        -9.9692851025       -1.1215031931       -0.0020310005
 H       -10.9632488586       -0.9306987372       -1.4921936734
 H       -11.7312790727       -0.4628495225        0.0724575719
 H        -8.8321243051        2.3159624266       -1.2820156643
 H        -9.3828213694        0.9775619985       -2.4157661042
 H        -8.2937946560        0.7953304629       -0.9906667748
 H       -11.8528305693        7.7691029060        0.5166306342
 H       -11.5184968287        8.6456654831       -0.8712063637
 H       -10.4708715511        7.3786825028       -0.3873012979
 H       -14.0464347109        7.4890752104       -0.3519433582
 H       -14.3659922368        6.5225126238       -1.7898673434
 H       -13.6613823479        8.1176641180       -1.8926473661
 H        -9.3890913148        4.0788317428       -7.0531085691
 H        -9.0177924863        5.7215528803       -6.8442062856
 H       -10.4825131295        5.1291054206       -6.1515180190
 H        -9.7273449464        2.6832001469       -4.8518276462
 H        -8.3430431703        3.0206137328       -3.7600113031
 H        -8.1349146937        2.7212250118       -5.5625298543
 H        -1.5459875033        6.7519657590       -3.8797650213
 H        -3.2441413276        6.7262367474       -3.6568867693
 H        -2.5726002866        6.4026441743       -5.2324713905
 H        -1.1928157856        4.0578402012       -5.5225407227
 H        -1.5831285575        2.8916477078       -4.3177035650
 H        -0.3406555613        4.1605864028       -4.0328321874
 Na      -12.2391320035        3.5791916911        1.8507241242
