117

 C        -1.2931062666        3.7682295013       -1.5933120583
 C        -2.3206698377        4.6521020980       -2.1981390260
 O        -3.1514689035        5.2879433896       -1.5242289148
 C        -2.3763946043        4.7447610567       -3.8543095049
 C        -3.7626073291        4.2975188978       -4.2302130240
 O        -4.1053166239        3.2707553260       -3.6467569065
 C        -4.7395950051        4.9842665359       -5.1777246303
 C        -6.0501638208        4.2511017788       -5.2919071743
 C        -7.2417099405        5.1639436868       -5.2930607291
 O        -7.1095596505        6.3493235265       -5.4676574702
 C        -8.7305790737        4.6428037533       -5.0044174162
 C        -9.4165371948        5.5301537647       -4.0025694694
 O        -9.6099914822        5.0878976726       -2.8559611663
 C        -9.7065640967        6.9658106077       -4.3600632528
 C       -10.5155902017        7.6464627496       -3.2516814659
 C       -11.7532830725        6.8169250851       -2.8236094758
 O       -12.3483395082        6.1974361708       -3.6753848174
 C       -12.1979591527        6.6347809617       -1.2847318824
 C       -12.1258596332        5.1791103505       -0.8656677597
 O       -11.8201201423        5.0072788885        0.3259545700
 C       -12.5977536566        4.0054173416       -1.6881712124
 C       -11.4717840630        2.9828404133       -1.8298848645
 C       -11.5402212983        1.9880620305       -0.7044267033
 O       -12.4812935244        1.9926944333        0.0508320234
 C       -10.4122515866        1.0349988147       -0.4239415315
 C        -9.9907225455        1.2908725788        1.0814240064
 O       -10.3178617775        2.2062072921        1.7782396300
 C        -8.9352668386        0.3296691059        1.7197180536
 C        -8.5784476517        0.4148519688        3.3071455933
 C        -9.8448576713        0.4467446103        4.0834676574
 O       -10.5575866504       -0.4974860909        4.0601976469
 C       -10.2322008534        1.7598689544        5.1578917031
 C       -11.6553374214        2.1145933557        4.6787658091
 O       -11.8826453669        3.1499745370        4.0275883788
 C       -12.6885170619        1.0531853667        4.9596664541
 C       -14.1041472427        1.5239514240        4.4633055180
 C       -14.5203290425        2.7050591909        5.2549207150
 O       -14.2909052367        2.9283894170        6.4238946402
 C       -15.4760300599        3.7808822588        4.5339300041
 C       -14.5956424754        4.2244287620        3.4007101451
 O       -14.5280700810        3.6196114846        2.3447427625
 C       -13.7654888166        5.4719666060        3.6796038493
 C       -16.7791033880        3.0572788855        4.1990957529
 C       -15.8413723279        4.8973865641        5.5475208549
 C       -10.0979356380        1.1680719652        6.5655199881
 C        -9.3779579438        3.0161442270        5.0751126976
 C       -10.8107326283       -0.4074419694       -0.7232110981
 C        -9.1779992246        1.2352317801       -1.3160173091
 C       -11.3642510199        7.5120330311       -0.3151445936
 C       -13.7252611883        7.0369054354       -1.3719150303
 C        -9.4790716870        4.8407080297       -6.3510050081
 C        -8.8101693564        3.1969378078       -4.4862318768
 C        -2.0144351391        6.1923848762       -4.3442365689
 C        -1.2662141694        3.8606566691       -4.4705542179
 H        -0.8979635421        2.9727018965       -2.2390425321
 H        -1.3811342917        3.3836452513       -0.5815100175
 H        -0.4262980175        4.4371033208       -1.5172285306
 H        -4.2212449145        5.1239036633       -6.0946645478
 H        -4.9846082628        5.9848999964       -4.8355452382
 H        -6.0136754588        3.4672684424       -4.4769507395
 H        -6.1087760920        3.5608342052       -6.1738958285
 H       -10.1338272162        7.1121695108       -5.3664867485
 H        -8.7797650753        7.4822260281       -4.2645121763
 H       -10.7385545092        8.6219651122       -3.5715907926
 H        -9.7649316037        7.8646644445       -2.4102423207
 H       -12.9176231883        4.2225442284       -2.6790902370
 H       -13.3810291177        3.5697658573       -1.0811932696
 H       -10.4479629574        3.3495405302       -1.9677673668
 H       -11.6100263313        2.4037949174       -2.7385702191
 H        -8.0513749314        0.3740953778        1.0781534257
 H        -9.3543519647       -0.6551860997        1.5565236720
 H        -7.9042076455        1.2482702360        3.5512237094
 H        -7.9946350513       -0.5293647820        3.4697859797
 H       -12.6496776757        0.9126899008        6.0222950060
 H       -12.4184941327        0.0909184789        4.4279325391
 H       -14.9196745795        0.7510019339        4.6216281700
 H       -14.0201151909        1.7662660422        3.3832746682
 H       -14.3511107583        6.3871177853        3.4304682603
 H       -12.8832958358        5.5302463588        3.0741661884
 H       -13.4246309510        5.5405183947        4.6733780160
 H       -16.8553653706        2.4128319056        5.0385504121
 H       -16.6346422082        2.5653000497        3.2555205004
 H       -17.5967173034        3.8209824232        4.3462072986
 H       -16.5214515139        5.6412236554        5.0623979059
 H       -14.9484509554        5.4088459036        5.8138601941
 H       -16.3178426778        4.4111969656        6.4066330505
 H       -10.5388599770        1.8660294699        7.3129535818
 H        -9.0062040754        1.0393750204        6.7786604479
 H       -10.5256538932        0.2808158447        6.7186419235
 H        -9.4624484429        3.5700105343        4.1403546227
 H        -8.3367787866        2.7598586936        5.1613904970
 H        -9.7554558093        3.6758539487        5.8869303974
 H        -9.9692610979       -1.0379389286       -0.6828625271
 H       -11.1150140232       -0.4083760816       -1.7669537234
 H       -11.6664647518       -0.7490397729       -0.2043737135
 H        -8.5600706554        2.1444804798       -1.1135997271
 H        -9.4582010148        1.2281961931       -2.3023632294
 H        -8.4973409893        0.4292671972       -1.1730100902
 H       -11.7577013039        7.5299230036        0.7298772434
 H       -11.4530621799        8.5565111949       -0.6333841886
 H       -10.2891665303        7.1009267810       -0.2326186807
 H       -14.2092131792        6.8334224854       -0.3708880551
 H       -14.2302692874        6.4388285652       -2.2155825550
 H       -13.8060134955        8.0828666805       -1.6580954658
 H        -9.0126469594        4.2626522303       -7.1405200256
 H        -9.3641785270        5.8942853384       -6.7927276889
 H       -10.5418213302        4.5265213563       -6.2335551447
 H        -9.8601160211        2.9515096461       -4.5454326595
 H        -8.5308295394        3.1808523487       -3.4566584880
 H        -8.2980852192        2.5016437436       -5.1650633258
 H        -0.9520103969        6.3736137407       -4.1666297944
 H        -2.5883284038        6.9759128005       -3.8290886496
 H        -2.0946059889        6.2686924245       -5.4201888742
 H        -1.3413884738        3.9595110427       -5.5856327646
 H        -1.4014771605        2.8071576355       -4.2734674881
 H        -0.2734602134        4.1218751617       -4.2026696462
 Na      -12.3118100020        3.4184115861        1.8125825908
