117

 C        -0.9021123315        3.6525431011       -1.7411383844
 C        -1.7649065374        4.6468533046       -2.5332007259
 O        -2.4489687292        5.4316130399       -1.8362223257
 C        -2.0276200511        4.5386250967       -4.0737704056
 C        -3.5316224826        4.1883820342       -4.2401938983
 O        -3.8177763699        3.0096636633       -4.0094386675
 C        -4.6355000382        5.0406875699       -4.7107920711
 C        -5.9685414402        4.2661564850       -4.7942738834
 C        -7.1642630899        5.0871925083       -5.3974427583
 O        -7.0394377497        6.2622800284       -5.6308769369
 C        -8.6849596847        4.5067050109       -5.3695018093
 C        -9.4649180610        5.2503908287       -4.1645458725
 O        -9.7081432549        4.6843880405       -3.0845194081
 C        -9.8091824412        6.7110632219       -4.5045336670
 C       -10.4814288135        7.4921736706       -3.3399183493
 C       -11.7918849162        6.7635330757       -2.9474628860
 O       -12.5853810308        6.4116447309       -3.7825938240
 C       -12.2710898679        6.5785218287       -1.4205125462
 C       -12.1596417612        5.2209520047       -0.8985087079
 O       -11.6758752292        5.1234637090        0.2394079776
 C       -12.6378268815        3.9649891065       -1.5731689959
 C       -11.5140088341        2.8801902786       -1.6502420204
 C       -11.6049838588        1.7447683719       -0.5809081440
 O       -12.6575159320        1.5291535783       -0.0272474529
 C       -10.3524081437        0.9013636899       -0.1806558333
 C       -10.1470068267        0.8800777886        1.3359926952
 O       -10.7851359204        1.6218074329        2.0411759697
 C        -9.1371872972       -0.0503798508        2.0541582498
 C        -8.8124148196        0.5598440497        3.4344596297
 C        -9.9913078080        0.4399252118        4.4466955045
 O       -10.4224148260       -0.6267407725        4.7417625519
 C       -10.3864879496        1.7674780922        5.2363469413
 C       -11.8176014835        2.1260883198        4.8495022566
 O       -12.1377906990        2.9794164011        4.0219042071
 C       -12.9859600328        1.3559913400        5.5231208330
 C       -14.3392884733        1.8412871242        5.0287707080
 C       -14.6581798809        3.2370603311        5.5091360203
 O       -13.9552273537        3.7131280241        6.4244998584
 C       -15.6036239558        4.1959102519        4.5491876280
 C       -14.6384684643        4.7722284153        3.4758709918
 O       -14.5481672895        4.2760454789        2.3544353191
 C       -13.6415800434        5.7928069270        4.0093345299
 C       -16.5922833888        3.3372100744        3.7399644049
 C       -16.4891093903        5.2122637913        5.3786627358
 C       -10.2170727480        1.5860995960        6.7417512866
 C        -9.4851028050        3.0111373201        4.8964313867
 C       -10.7404926516       -0.4557536876       -0.7826648599
 C        -9.0851759254        1.3495846590       -0.9132301790
 C       -11.4489280091        7.5531491486       -0.5660777780
 C       -13.7811009081        6.8765784518       -1.3232254139
 C        -9.3578737938        4.7243452663       -6.7490575310
 C        -8.6739738417        3.0059793655       -5.0750882209
 C        -1.5992445406        5.9216283710       -4.6234017911
 C        -1.2355839623        3.5227576526       -4.8753517106
 H         0.1637740022        3.9475490539       -1.9042500028
 H        -0.9629537690        2.6240743386       -2.1237102727
 H        -1.1208261852        3.5849626797       -0.6664221479
 H        -4.4259171488        5.6673304802       -5.6051716891
 H        -4.8418556266        5.9237820290       -4.0558294402
 H        -6.1810485522        3.8989369025       -3.8042127020
 H        -5.8614648135        3.3538963691       -5.3401712961
 H       -10.4128555155        6.7102705541       -5.4320440292
 H        -8.8900807330        7.2518972446       -4.7264695065
 H       -10.8187822871        8.4400449230       -3.6887784809
 H        -9.7698476523        7.6352573778       -2.4583564250
 H       -13.0072483586        4.1381958984       -2.6163358921
 H       -13.4348175816        3.5319538332       -0.9251007315
 H       -10.4779072504        3.2868472814       -1.6214946719
 H       -11.5735601523        2.2704352755       -2.5777567643
 H        -8.3114706878       -0.2505333505        1.3903916230
 H        -9.5835415170       -1.0595360142        2.2229925998
 H        -8.4221092647        1.5694641160        3.3348098854
 H        -8.0650486904       -0.0597481536        3.8896444801
 H       -12.8680804288        1.4769929620        6.5846577378
 H       -12.8697436560        0.2876638248        5.2792800229
 H       -15.1221879023        1.1029698544        5.2342309573
 H       -14.3305812666        1.8088677238        3.9713317359
 H       -14.1546970329        6.7825853986        3.9224671651
 H       -12.7590245245        5.8769671170        3.3723034257
 H       -13.3920814220        5.6552756551        5.0427498315
 H       -16.9148892001        2.5799064389        4.4240073391
 H       -16.0838721431        2.9781474582        2.8492741116
 H       -17.3405480722        4.0735695017        3.2795325570
 H       -17.0715130697        5.9561648464        4.7457099485
 H       -15.8253336732        5.7240930177        6.0763891723
 H       -17.1973456872        4.6871988489        6.0603451950
 H       -10.5292119922        2.4920923798        7.2814385021
 H        -9.1320644036        1.6052850910        6.9956555049
 H       -10.6054825583        0.7380288194        7.2169433740
 H        -9.4541746798        3.2957611122        3.8317816110
 H        -8.5066347829        2.9272805576        5.3603894411
 H        -9.8936244025        3.8513333149        5.4679571209
 H        -9.9157570742       -1.1766255648       -0.7663755648
 H       -11.0325040712       -0.3048176627       -1.8714226258
 H       -11.5271433157       -0.9681710113       -0.2313768214
 H        -8.6281008167        2.3312210446       -0.5044722259
 H        -9.2819993000        1.5656661600       -1.9333839298
 H        -8.3096533777        0.5525167574       -0.9714536575
 H       -11.8909090576        7.5335893586        0.4399565478
 H       -11.2844030113        8.5437010544       -0.9700947356
 H       -10.3937478631        7.1234275354       -0.4781924692
 H       -14.0931587828        6.7548886815       -0.2747084809
 H       -14.3546272473        6.1447986263       -1.9358975496
 H       -13.9043361638        7.8532541371       -1.6647297832
 H        -8.8593137879        4.1722417813       -7.5006777209
 H        -9.4452448659        5.8125974995       -6.9367204169
 H       -10.3718213372        4.3838098189       -6.6878398538
 H        -9.6785554757        2.6696990326       -4.8143419440
 H        -8.0040733407        2.7371804159       -4.2896749871
 H        -8.2877971278        2.4660071293       -5.9483175007
 H        -0.4809552288        6.0242724219       -4.4739106064
 H        -2.1170614197        6.8124404703       -4.1838525608
 H        -1.8222991323        5.9168962333       -5.7063883514
 H        -1.3702515952        3.7904056436       -5.9698365163
 H        -1.5286436821        2.4651840030       -4.7539673630
 H        -0.1946554501        3.5731834448       -4.6614114569
 Na      -12.4198011762        3.5209987823        1.6843387428
