117

 C        -0.8699937227        3.6136199230       -1.7712158587
 C        -1.7575638324        4.6037302520       -2.5945208643
 O        -2.3643685224        5.4536416610       -2.0647758147
 C        -1.9449337785        4.5415327971       -4.1473374804
 C        -3.5740280312        4.1478380886       -4.2614581028
 O        -3.7717045286        2.9553520682       -4.0608181878
 C        -4.7645446129        5.1302913479       -4.5590956856
 C        -6.0521557334        4.2586793856       -4.6945559797
 C        -7.1966715178        5.0838122477       -5.2403871366
 O        -7.0029269129        6.2528710006       -5.5099370584
 C        -8.6926813356        4.4525177492       -5.3887456229
 C        -9.3772176235        5.1967733692       -4.2706616231
 O        -9.5714212830        4.6569599672       -3.1893135346
 C        -9.8131983977        6.6113288337       -4.5073413968
 C       -10.4604535219        7.3197054098       -3.2940742907
 C       -11.8919237065        6.7336771679       -3.0318689769
 O       -12.5956586596        6.2155830370       -3.8751747589
 C       -12.2640228587        6.6712780833       -1.4650828634
 C       -12.0999577429        5.1565852791       -0.8790776028
 O       -11.5813907264        5.0635079339        0.2497549080
 C       -12.6897723826        3.9245436999       -1.5478613680
 C       -11.5389888601        2.9416390020       -1.7027918672
 C       -11.5573300665        1.8361780316       -0.5468197829
 O       -12.6126989884        1.5985575008        0.0119631877
 C       -10.3282366083        0.9050061815       -0.2874060468
 C       -10.2022272043        0.8148444954        1.4067826288
 O       -10.8592131336        1.6120793323        2.0599952074
 C        -9.2361135876       -0.1288679188        2.1559579256
 C        -8.7816998554        0.4535456115        3.4402059803
 C        -9.9072826481        0.4951132259        4.5520819785
 O       -10.6313439057       -0.5004297933        4.6998662249
 C       -10.3542602549        1.8654935167        5.2577320215
 C       -11.8874998815        2.1028798774        4.8630707057
 O       -12.0542867583        3.0226374602        4.0407130516
 C       -13.0306535817        1.4277408837        5.5873816826
 C       -14.3811023115        1.8884560396        5.0522000954
 C       -14.6021269268        3.3957134341        5.4258826069
 O       -14.0661580908        3.8970413185        6.3994742774
 C       -15.6040503267        4.1675788220        4.5398233446
 C       -14.5855381263        4.8235590533        3.5781839995
 O       -14.5167410335        4.3274881449        2.4743448859
 C       -13.5933008060        5.8446029594        4.0367187580
 C       -16.6606788488        3.2312278722        3.7065710123
 C       -16.4198719181        5.1320926093        5.4352390963
 C       -10.3438236843        1.6355568127        6.7550002255
 C        -9.5681774716        3.1508127652        4.9214293368
 C       -10.7628648279       -0.5241763218       -0.9011684827
 C        -9.0085526001        1.2645612224       -0.9560897654
 C       -11.4603341802        7.6792776798       -0.5233555830
 C       -13.8088023191        6.9888717407       -1.3718384649
 C        -9.3056973182        4.8187282476       -6.7641349067
 C        -8.8200821863        2.8464846153       -5.1984027606
 C        -1.5025471994        5.9854449446       -4.6226209612
 C        -1.1145977947        3.5053406511       -4.8820575564
 H         0.0635427951        3.9049944832       -2.1275006143
 H        -0.9152466386        2.5432555541       -2.0810265491
 H        -0.9152223680        3.6378358200       -0.6565011824
 H        -4.6018889060        5.6880142809       -5.4729057777
 H        -4.9732338521        6.0115725216       -3.9405091802
 H        -6.3211614702        3.7862689007       -3.7353467322
 H        -5.8527424869        3.3955889746       -5.3401574766
 H       -10.4783388406        6.6420715932       -5.4089484479
 H        -8.9738981693        7.2632654671       -4.7547359388
 H       -10.5272686426        8.3553619014       -3.5518149823
 H        -9.8640531960        7.2043430583       -2.3397043560
 H       -13.0976686257        4.1623719590       -2.5320524897
 H       -13.4754373419        3.4702712748       -0.8634826283
 H       -10.5862497691        3.4533283953       -1.6811388128
 H       -11.5703009444        2.3573095030       -2.5989707304
 H        -8.3954853187       -0.4740083080        1.4822733516
 H        -9.7945856893       -1.0588715532        2.3379632330
 H        -8.4616660638        1.4461423817        3.2484319739
 H        -7.8679188001       -0.1626429554        3.7863667296
 H       -12.9020794815        1.8508877197        6.5823983471
 H       -12.8235083063        0.3028520485        5.6560007710
 H       -15.1952782312        1.2722248197        5.3522086256
 H       -14.4195690181        1.7436777731        3.9904101373
 H       -13.9178114590        6.9004001503        3.8160034064
 H       -12.6346232499        5.6931431977        3.5400500337
 H       -13.5029491698        5.7731119365        5.1181998223
 H       -16.8427847432        2.3868152910        4.4048445999
 H       -16.1397255324        2.9118652642        2.8032309256
 H       -17.4977081886        3.7845724781        3.3992367591
 H       -17.0281461438        5.7570069511        4.7190170911
 H       -15.7664605892        5.7868636702        5.9840428031
 H       -17.0435289734        4.6862844003        6.1800635436
 H       -10.5841085831        2.5378882320        7.3136260564
 H        -9.4268281461        1.3229046349        7.2038754810
 H       -11.1107493595        0.7755093060        7.0926211024
 H        -9.8020440618        3.5298075361        3.9608152812
 H        -8.5240084813        3.0104644671        5.0608844862
 H        -9.7731291653        3.9183288975        5.7086315466
 H       -10.0557212450       -1.4453382074       -0.7993240791
 H       -10.9988236830       -0.4287658854       -1.9752330477
 H       -11.6353970886       -0.8592585349       -0.3306879558
 H        -8.5416205595        2.2296900557       -0.7132672665
 H        -8.9924338093        1.1697590681       -2.0867890947
 H        -8.3285937894        0.4410617170       -0.6261984020
 H       -12.0763674111        7.5907901519        0.3337329208
 H       -11.2601141332        8.6673402966       -0.8308373862
 H       -10.5456700406        7.2846378716       -0.2347630517
 H       -14.1604449137        6.7203976881       -0.4445589758
 H       -14.2855749499        6.3628520825       -2.1003289408
 H       -14.0108662337        8.0459929389       -1.5235245840
 H        -8.8150442036        4.1926936062       -7.5584976615
 H        -9.3270367946        5.8357309718       -6.9260411824
 H       -10.3128439425        4.5264780090       -6.6921622221
 H        -9.8615266322        2.5940254344       -5.1663661508
 H        -8.3737247671        2.4768346976       -4.2690791688
 H        -8.2870696058        2.2889833614       -5.9932302738
 H        -0.4376268904        6.0175075967       -4.4285407623
 H        -1.9743155541        6.7986577909       -4.0048783060
 H        -1.7160482972        6.1899624191       -5.6901726720
 H        -1.2076564806        3.6673287349       -5.9817648574
 H        -1.4704034417        2.5194216352       -4.6825927611
 H        -0.0120820989        3.5155785963       -4.6539563376
 Na      -12.3694601949        3.4776585592        1.7229594877
