117

 C        -0.9564446062        3.5774607217       -1.9864016914
 C        -1.7403169570        4.7054905652       -2.7569522243
 O        -2.2025465108        5.5783206684       -2.1199599765
 C        -2.0946573257        4.4871661543       -4.3302336263
 C        -3.4800138160        3.7591039070       -4.4533961025
 O        -3.6097609707        2.5518534810       -4.5046380771
 C        -4.6069250079        4.7911995615       -4.2940907085
 C        -6.0032795017        4.1270423002       -4.4110643433
 C        -6.9552321685        5.0412006840       -5.1388931916
 O        -6.5887488676        6.1918213690       -5.3340744673
 C        -8.3063648197        4.4872083551       -5.5730324039
 C        -9.2214203434        4.9839922824       -4.4106291607
 O        -9.3263218095        4.3922958540       -3.3647946341
 C        -9.8113558552        6.3672966369       -4.6354173985
 C       -10.3467744397        7.0439924708       -3.3455791845
 C       -11.7669850153        6.4054611740       -2.9076376250
 O       -12.4735200124        5.8477608649       -3.7176820546
 C       -12.3526218709        6.5761563654       -1.4645421476
 C       -12.1458442310        5.1571177444       -0.7851310979
 O       -11.6896769887        5.1650507952        0.3612770611
 C       -12.5704472363        3.9536170966       -1.6064849037
 C       -11.4708222568        2.8956727599       -1.6320846090
 C       -11.6869993427        1.8601779159       -0.4695767764
 O       -12.7425627221        1.7076483058        0.0904943698
 C       -10.5439524016        0.9151566794       -0.1002720325
 C       -10.3355557755        0.9560877719        1.4968234564
 O       -10.8248539526        1.8563684514        2.1369965257
 C        -9.5013474812       -0.1160377063        2.1549911035
 C        -8.9703712190        0.2872069039        3.5774617565
 C       -10.2493679019        0.6352025777        4.3861216474
 O       -11.1375785016       -0.2041173511        4.3403872233
 C       -10.4201634595        1.9549826522        5.3183533180
 C       -11.8879496747        2.4506094424        5.1626594354
 O       -12.1013873320        3.3663837541        4.3661103278
 C       -12.9561337347        1.6185848852        5.8181944796
 C       -14.3479926000        1.9143357854        5.2995283023
 C       -14.7789016759        3.4468326391        5.6640694622
 O       -14.2833502755        4.0697068638        6.5276694290
 C       -15.6821854202        4.2786171801        4.5785314992
 C       -14.5239202796        4.8776051152        3.5710606746
 O       -14.3933769848        4.3122271447        2.5223116512
 C       -13.8108165529        6.1915937553        3.9046034196
 C       -16.5290566623        3.3724094409        3.6271209150
 C       -16.4428862314        5.4367842145        5.2123214313
 C       -10.0425759489        1.4885226833        6.7568481851
 C        -9.5146895131        3.0006216796        4.7115677675
 C       -10.9075099647       -0.5248025004       -0.5260288297
 C        -9.1930380149        1.2510543980       -0.6806403330
 C       -11.8217969920        7.6220423741       -0.5187205954
 C       -13.9253882871        6.6511436675       -1.4215322281
 C        -8.7460364118        5.0053441722       -6.9600387234
 C        -8.2848204939        2.9896728919       -5.5383593954
 C        -2.2473836018        5.8598375645       -5.0466169530
 C        -0.9771154070        3.6261142924       -5.0476367051
 H         0.0018071961        3.4601804387       -2.4761048621
 H        -1.4137675517        2.5431542241       -2.0623653917
 H        -0.7984066237        3.9128505995       -0.9362052534
 H        -4.6175580179        5.6242247515       -5.0526079482
 H        -4.5497958338        5.3415595164       -3.3073307284
 H        -6.4348382754        3.9762864431       -3.4321485951
 H        -5.8012425776        3.1667497121       -4.8422990538
 H       -10.7102701519        6.2556504692       -5.2876935029
 H        -9.0948599579        6.9569334454       -5.1938638604
 H       -10.5912382254        8.0882150789       -3.5225185154
 H        -9.6240425511        6.9238143155       -2.5064662106
 H       -12.8202632210        4.1876298799       -2.6370785459
 H       -13.4968449302        3.5037366457       -1.1212437788
 H       -10.5187231519        3.3819455992       -1.3571849823
 H       -11.3805677814        2.4124711689       -2.6119140576
 H        -8.7228887211       -0.5810774453        1.4885351874
 H       -10.2313242028       -0.8983414022        2.3276782913
 H        -8.3414524266        1.1282536284        3.4914149861
 H        -8.4158473488       -0.5702381300        4.0874049179
 H       -12.8892049183        1.9177675338        6.8390109970
 H       -12.6306351506        0.5437824371        5.8313738381
 H       -15.0483086991        1.1667253317        5.6193621932
 H       -14.3525169250        1.8276939411        4.2181079385
 H       -14.5015480482        7.0356484164        3.9925970113
 H       -13.1185879317        6.3882118165        3.1048537662
 H       -13.2955772626        6.1185939867        4.8620460311
 H       -17.4502193295        3.0362900169        4.2170378160
 H       -15.8879829668        2.5038925301        3.4048872053
 H       -16.9083359163        3.9110346020        2.8307092402
 H       -16.6875420287        6.2182832195        4.4375840616
 H       -15.9104765581        5.9967686650        6.0270179080
 H       -17.4104694079        5.1497723924        5.6455626374
 H       -10.3525605549        2.1625351311        7.5490214119
 H        -9.0271279478        1.1606224003        6.8818950778
 H       -10.6508130791        0.6022571370        7.0601986971
 H        -9.8069988968        3.2309270390        3.6910705281
 H        -8.4709591036        2.6699858312        4.7661547680
 H        -9.5954940910        3.9768000714        5.2819590639
 H       -10.2072895365       -1.3336855882       -0.2271152662
 H       -10.9924046170       -0.6534397348       -1.5817019661
 H       -11.8696134597       -0.8330228308       -0.0676822165
 H        -8.6388925184        2.0237436088       -0.2428589984
 H        -9.3318821574        1.3638584981       -1.8174221303
 H        -8.5349656768        0.3947614519       -0.5073705040
 H       -12.3853531666        7.4878019994        0.4515833088
 H       -12.1136265266        8.6524593655       -0.9518034695
 H       -10.7409848223        7.5671613548       -0.3282908863
 H       -14.3732905386        6.8495684534       -0.4700512257
 H       -14.2733221776        5.7794958515       -1.9349695076
 H       -14.1592170332        7.5800447466       -2.0416796104
 H        -8.0201742636        4.4814678993       -7.6605828982
 H        -8.6613627283        6.0430656713       -7.0455506557
 H        -9.7453400247        4.6481953287       -7.1167365839
 H        -9.1475732886        2.4682481068       -5.8795064295
 H        -8.0411411293        2.6365780363       -4.5303713155
 H        -7.4567097475        2.6980070509       -6.1937408656
 H        -1.2511934508        6.2674445557       -5.1749578174
 H        -2.8425219066        6.6280686308       -4.4903104629
 H        -2.6978026997        5.7682736306       -6.0679383918
 H        -1.2758573727        3.4328553104       -6.0657325400
 H        -0.7969283072        2.6785581432       -4.6029196240
 H        -0.0305481181        4.2182496796       -5.1897734623
 Na      -12.3277915521        3.6185497897        1.8491283685
