117

 C        -0.9692492015        3.6202388198       -2.0988834583
 C        -1.8275618780        4.6097801669       -2.8876196387
 O        -2.2198025486        5.6905558700       -2.3611536176
 C        -2.0545052675        4.4531557809       -4.3892516767
 C        -3.4177187358        3.7250442844       -4.4136416007
 O        -3.5762366411        2.5350671092       -4.6082864275
 C        -4.5351689326        4.6639182046       -4.0903473908
 C        -5.9750864732        4.0314314450       -4.2817566405
 C        -6.7843410192        5.0060015168       -5.1563184838
 O        -6.5467364341        6.1799522119       -5.3822633187
 C        -8.2288545604        4.3830391744       -5.6399597024
 C        -9.1813358333        4.9661510962       -4.4263140702
 O        -9.3722126198        4.3455031437       -3.4192780678
 C        -9.7828581302        6.4149051629       -4.5649505666
 C       -10.4444888467        7.0141304082       -3.3476660925
 C       -11.7974680228        6.4600902537       -2.9975163966
 O       -12.4141728496        5.9246775336       -3.8885935629
 C       -12.4106311100        6.5126553223       -1.5107805312
 C       -12.1930871243        5.1069878716       -0.7215521276
 O       -11.7057096904        5.0968754114        0.3845804821
 C       -12.6376353355        3.8915110092       -1.4556286787
 C       -11.5068765061        2.8739510474       -1.4524909260
 C       -11.7224910933        1.8369148385       -0.3747915405
 O       -12.8498592244        1.6913821078        0.0792542861
 C       -10.5364594091        0.8413068105       -0.0415736270
 C       -10.3307602516        0.9928628112        1.5158604338
 O       -10.7900498416        1.9123235675        2.1674817865
 C        -9.4734269938       -0.1039276678        2.1635454607
 C        -9.0154119527        0.1499214465        3.6374781159
 C       -10.2806375692        0.5886019256        4.3928153965
 O       -11.2090343577       -0.1392745745        4.2521380354
 C       -10.3671256268        1.8756760142        5.2623820090
 C       -11.8441570043        2.4505912938        5.1887029282
 O       -12.0870488597        3.4049739100        4.5235116904
 C       -13.0395555965        1.7418316576        5.9569674519
 C       -14.3715187548        2.1660430832        5.3567644716
 C       -14.7155284939        3.5570688619        5.5535287515
 O       -14.4979286875        4.1150036671        6.6155347744
 C       -15.6342641288        4.3390848187        4.4737928633
 C       -14.5958404289        4.9112236669        3.5359457720
 O       -14.2857253085        4.2543259115        2.4964311021
 C       -13.8516859397        6.1972161369        3.8538596504
 C       -16.5397213296        3.3778933058        3.6897203201
 C       -16.3883935268        5.3732457319        5.2561876636
 C       -10.0842132402        1.5058863661        6.7148314603
 C        -9.4794740806        3.0400239063        4.6664126697
 C       -11.0146832132       -0.5139896401       -0.4258759611
 C        -9.1185976641        1.2524567681       -0.7258645230
 C       -11.8271809178        7.6344669907       -0.6023814863
 C       -13.9755448588        6.6235265740       -1.5119709955
 C        -8.6614900164        5.1033282341       -7.0103622265
 C        -8.2339568770        2.8482096478       -5.6686514926
 C        -2.0756627785        5.8934182420       -4.9034573321
 C        -0.9386038765        3.6246469214       -5.0837394454
 H         0.0209692719        3.4843986927       -2.6360180103
 H        -1.4591422971        2.6739128081       -2.2502564990
 H        -0.8158790922        3.8497670354       -1.0599121991
 H        -4.5221599684        5.5052955233       -4.8025757045
 H        -4.5154718076        5.1054851789       -3.1013776664
 H        -6.4813919739        3.9651524266       -3.3103736443
 H        -5.8304800804        3.0288707412       -4.7106381498
 H       -10.4931551484        6.4100184434       -5.4017847099
 H        -8.9453234523        7.1035870297       -4.8795014656
 H       -10.6366123336        8.1316178381       -3.4899556621
 H        -9.7992525363        6.8580742258       -2.5312881810
 H       -12.9243905841        4.0717784328       -2.5104622405
 H       -13.5320807045        3.4427831781       -0.9224231777
 H       -10.5753782701        3.3478153735       -1.2531358146
 H       -11.4679596784        2.3353876891       -2.3775908291
 H        -8.6000302224       -0.3569186167        1.4993999660
 H       -10.1022111047       -1.0120123259        2.1691698044
 H        -8.2897638948        1.0350291747        3.6302703136
 H        -8.5964342279       -0.7304462704        4.1256578526
 H       -12.9578014285        1.8291368420        7.0841061652
 H       -12.9246540958        0.6658090045        5.7636608978
 H       -15.1688528381        1.6345761468        5.8382110583
 H       -14.3617341768        1.8484183839        4.3145931816
 H       -14.3609765793        7.0602919827        4.2093733831
 H       -13.3177487410        6.4088673117        2.9093545935
 H       -13.0560289464        5.9356398117        4.6083608127
 H       -17.2314751359        3.0910841962        4.4361144867
 H       -15.9808129463        2.5048606256        3.4409958826
 H       -17.1819137706        3.8084488423        2.9059236187
 H       -16.6173978323        6.2632465099        4.7376697061
 H       -15.8841411535        5.7170438208        6.1972482644
 H       -17.3580999153        4.9535275898        5.5674646348
 H       -10.1071906253        2.4276223080        7.3724018501
 H        -9.1900444872        0.8322212095        6.9211707107
 H       -10.8520422177        1.0160437910        7.1478941869
 H        -9.7999834290        3.2966051523        3.6431872120
 H        -8.4034267467        2.7703870565        4.6712007667
 H        -9.6176032521        3.9175668605        5.2446079604
 H       -10.3486369198       -1.3638727402       -0.4590095732
 H       -11.3047915347       -0.3680310175       -1.5114319272
 H       -11.9634297720       -0.8939206617        0.0932450644
 H        -8.7542935277        2.1674080658       -0.2251565794
 H        -9.2084810801        1.3996274265       -1.8175926537
 H        -8.2839497314        0.5610661302       -0.4824766372
 H       -12.1972780483        7.5967505863        0.3877026095
 H       -12.1411905596        8.5530335107       -1.0362552005
 H       -10.7395939604        7.5785250369       -0.5681112493
 H       -14.3666708512        6.7989801595       -0.5054345234
 H       -14.3639866520        5.7707509507       -1.9706129344
 H       -14.2651168583        7.4808474098       -2.0618188594
 H        -7.9100711125        4.8875449760       -7.6734011402
 H        -8.6398759059        6.1829789060       -6.8586644988
 H        -9.6129026876        4.7149520216       -7.3342379745
 H        -9.2277798903        2.4171302276       -5.8320383198
 H        -7.8441010720        2.3703566565       -4.7567590870
 H        -7.6713233826        2.5244281086       -6.5089335800
 H        -1.0229938695        6.2064547252       -5.1533015105
 H        -2.4945318199        6.6433271332       -4.2200579689
 H        -2.6458048747        5.9697018676       -5.8864909861
 H        -1.3211049117        3.4803977943       -6.0715844383
 H        -0.7848210670        2.5876965497       -4.6824862323
 H         0.0027142661        4.1750610094       -5.2589926380
 Na      -12.3598263361        3.6711604413        1.9812708209
