117

 C        -0.8158835100        3.5426697558       -2.2969810495
 C        -1.5396038665        4.7337306124       -2.9530946015
 O        -2.0949515571        5.6174351700       -2.2786364400
 C        -1.8987803063        4.4925821970       -4.4645884537
 C        -3.3246156603        3.9019019723       -4.4747011955
 O        -3.5020682383        2.8390836896       -5.0325985672
 C        -4.5706128122        4.5637352938       -3.7211354225
 C        -5.8745959091        3.9121365156       -4.2729777239
 C        -6.6779457467        4.7967425653       -5.2029119335
 O        -6.1982011961        5.8910749882       -5.4285173184
 C        -8.1956987852        4.4143383404       -5.6212058204
 C        -9.1732568781        4.9002308346       -4.5155820369
 O        -9.5369065164        4.1244619674       -3.6776609807
 C        -9.6609326017        6.3695078306       -4.4908559840
 C       -10.2992668034        6.6426079931       -3.0960610751
 C       -11.7960683346        6.3518312419       -3.1574090666
 O       -12.3909942437        5.9522670128       -4.1179913248
 C       -12.5206089595        6.5364898129       -1.6500552432
 C       -12.3532742126        5.2596810371       -0.8296539419
 O       -11.8381934547        5.2251950907        0.2776515172
 C       -12.8090057785        3.9240480289       -1.3825798137
 C       -11.8136247761        2.7416884208       -1.4250063898
 C       -11.8421528014        1.7967436913       -0.1704482564
 O       -12.7156814094        1.8578267562        0.6496538763
 C       -10.5416477819        0.7169588230        0.0506552038
 C       -10.1255922552        0.8302036318        1.5459618504
 O       -10.5356028979        1.7930216299        2.1446040685
 C        -9.3074986844       -0.2290133517        2.2861446806
 C        -9.1826795198        0.0347281665        3.9270778531
 C       -10.5406257695        0.6571362844        4.4344774574
 O       -11.5612694064        0.0390130975        4.4275636544
 C       -10.4249131578        2.0214631377        5.3356979649
 C       -11.8582594993        2.6432133606        5.2505925255
 O       -11.9956355547        3.5872634932        4.4901960802
 C       -13.0080801409        2.0640067691        5.9769914112
 C       -14.3871034322        2.3324498412        5.4321646541
 C       -14.8717589317        3.7196199541        5.7245345095
 O       -14.5795310775        4.2612817051        6.7780834573
 C       -15.8009324530        4.4371284110        4.5854042344
 C       -14.7172158346        4.8762081699        3.5257077243
 O       -14.5323455483        4.1817813725        2.5501425549
 C       -13.8240853615        6.2114330805        3.7901833745
 C       -16.7844342804        3.3655186701        3.9064075951
 C       -16.5265966696        5.6764873199        5.0615764152
 C       -10.1125145236        1.3711826291        6.7458921867
 C        -9.3770166210        2.9988973974        4.7469501655
 C       -10.9887074992       -0.6762804417       -0.2665928708
 C        -9.3567148791        1.0223312453       -0.8882931500
 C       -11.8886879918        7.7781490187       -0.9174551906
 C       -14.0584989984        6.8788398851       -1.9603335234
 C        -8.4420699415        5.2714764004       -6.8959837226
 C        -8.4912075653        2.9022595782       -5.8076822918
 C        -1.8169214432        5.7714574014       -5.4156039141
 C        -0.9005231624        3.4880887434       -5.0719395577
 H         0.2765083062        3.6526953214       -2.4127257016
 H        -1.0990414100        2.5300366918       -2.6193521407
 H        -0.9693928956        3.7625508374       -1.2511495810
 H        -4.6875105116        5.6373357566       -3.9966762818
 H        -4.4826043842        4.3665506488       -2.6107874664
 H        -6.5054373894        3.7046287607       -3.4190552590
 H        -5.5711685914        2.9891730263       -4.7394099321
 H       -10.3450781859        6.6052077976       -5.3139838369
 H        -8.8518925002        7.0475156884       -4.6671367615
 H       -10.1938225720        7.6824023477       -2.7806755539
 H        -9.8892926326        6.0004539177       -2.2880248364
 H       -13.1127329801        4.0020045911       -2.3941485376
 H       -13.7014743211        3.5738175381       -0.8633696919
 H       -10.7628045205        3.1211295172       -1.5820988204
 H       -12.1085931048        2.0351766644       -2.2505433210
 H        -8.3488648170       -0.5477241681        1.7938907451
 H        -9.9300951646       -1.0816010505        2.2298239603
 H        -8.4166862616        0.7390134565        4.1431302209
 H        -9.0991607374       -0.8813170942        4.5072293269
 H       -13.0001176458        2.6094790012        6.8901245755
 H       -12.8634833958        1.0292265691        6.3053362863
 H       -14.9747660657        1.6072313563        6.0040738894
 H       -14.4305283226        2.1516019317        4.3419617198
 H       -14.2069351453        6.9778562641        4.4126291454
 H       -13.5372962595        6.6350350967        2.8390600660
 H       -12.9127677483        5.8633791864        4.2965618331
 H       -17.0821073136        2.4527492850        4.5057406101
 H       -16.3008202329        3.0535315854        2.9234201703
 H       -17.7228060765        3.8712415297        3.6831256799
 H       -17.1784167524        6.1156837575        4.3072456586
 H       -15.8863371009        6.5643596106        5.3200391627
 H       -17.2347384689        5.5771849169        5.8801027995
 H       -10.2368980801        1.9656612445        7.6711694815
 H        -9.1394028072        0.8800975039        6.8060338921
 H       -10.7504951605        0.6146223678        6.8820578632
 H        -9.4842768393        3.0162092328        3.6705559939
 H        -8.3738869334        2.6213686514        4.9468038082
 H        -9.5142420348        4.0128448976        5.1346926147
 H       -10.2112491419       -1.3458609745       -0.0517809945
 H       -11.2884759732       -0.8989430487       -1.2415010636
 H       -11.8932088747       -0.9705316396        0.2866016196
 H        -9.0625367649        2.0016122426       -0.6861741894
 H        -9.6936675276        0.9771706493       -1.9517272648
 H        -8.5291695082        0.3455000975       -0.7316104323
 H       -12.6404200637        8.0979895384       -0.1392747296
 H       -11.7836601767        8.7015899041       -1.5571568937
 H       -11.0038369892        7.4521315783       -0.2966973109
 H       -14.7124588501        6.6961181377       -1.0477459607
 H       -14.3240231441        6.1982627424       -2.7626475262
 H       -14.2227250514        7.9179954163       -2.4122380222
 H        -7.9415874441        4.9269508747       -7.8156740136
 H        -8.0399300643        6.2639209669       -6.6711669445
 H        -9.5554458014        5.2133818159       -6.9102067722
 H        -9.3726586397        2.7767794273       -6.4109226632
 H        -8.7781939735        2.4336291898       -4.8386793133
 H        -7.7433479902        2.3029431381       -6.3101373469
 H        -0.8512451009        6.1213259394       -5.2520320234
 H        -2.4422679901        6.6002431817       -5.2649685215
 H        -1.7967200348        5.4559925883       -6.4418285852
 H        -0.9104814036        3.4985835981       -6.1211289084
 H        -1.1317726263        2.4898776841       -4.7756805346
 H         0.1139885441        3.7516196169       -4.6907248326
 Na      -12.0167796860        3.5117950837        2.0913271302
