117

 C        -0.6902548531        3.6459905319       -2.3145591138
 C        -1.5777780027        4.6689754315       -2.9605620923
 O        -1.9807621610        5.7208079761       -2.3570485698
 C        -1.8598681846        4.4018620981       -4.4632478491
 C        -3.3546881225        3.7793600243       -4.6149246083
 O        -3.6154213094        2.8209086647       -5.2974806640
 C        -4.4998915916        4.4499994001       -3.8046504527
 C        -5.8672843728        3.8330438272       -4.2048067290
 C        -6.6547765210        4.7888907618       -5.0940206771
 O        -6.2118729064        5.8316637796       -5.5278903981
 C        -8.0930469407        4.4581478241       -5.5718863193
 C        -9.0496951242        4.8673162861       -4.4856053989
 O        -9.5675876111        4.0264867213       -3.7637957418
 C        -9.5726275324        6.3173290072       -4.4141749257
 C       -10.2182483150        6.6269637699       -3.0763464577
 C       -11.7319217695        6.3828023225       -3.0905558635
 O       -12.2741052395        5.9403352557       -4.0800275758
 C       -12.5805578258        6.5310440554       -1.7242066555
 C       -12.4128874614        5.1722945386       -0.8314177409
 O       -11.9356419961        5.2966453470        0.2766828168
 C       -12.9333883532        3.8390863868       -1.3986311443
 C       -11.9153839925        2.6666927169       -1.4314616183
 C       -11.7134234474        1.8377735636       -0.1285319477
 O       -12.5591557606        1.8869747686        0.7680352737
 C       -10.6247012578        0.7042298736        0.0656090493
 C       -10.1603245121        0.8372407343        1.6204565073
 O       -10.3809413935        1.8902160815        2.2241872682
 C        -9.4526214158       -0.3211036435        2.3800219912
 C        -9.2568370145        0.0129823001        3.8897224257
 C       -10.4760591679        0.6168544952        4.5151793617
 O       -11.5929260776        0.1514403361        4.3907503495
 C       -10.4217690648        1.8974221795        5.2770405615
 C       -11.8493996156        2.6395760705        5.1325570413
 O       -11.9294087196        3.6242365829        4.4477942776
 C       -12.9720791038        2.1863225826        6.0848959408
 C       -14.3907708416        2.4019747867        5.4354087775
 C       -14.9215501905        3.8457965975        5.6863522361
 O       -14.7082329480        4.4506696376        6.7270742973
 C       -15.7749403437        4.5604927693        4.5165808351
 C       -14.7257890906        4.8427419857        3.5032484472
 O       -14.3690915399        4.0473574816        2.5568214426
 C       -13.8787332167        6.0430175887        3.7725501301
 C       -16.7730074904        3.4888838435        4.0602750152
 C       -16.6090904549        5.6644956513        5.2034664311
 C       -10.2286255854        1.4490751251        6.7593182778
 C        -9.3943888891        2.9575399312        4.9247737350
 C       -11.1342149358       -0.7417469393       -0.2162340287
 C        -9.4244376593        0.9794689839       -0.9682711769
 C       -12.0217354199        7.7589867747       -0.9148645431
 C       -14.0734977893        6.8413701087       -2.0224089361
 C        -8.4696655665        5.2624292303       -6.9001647765
 C        -8.2737126342        2.9376419084       -5.9123638291
 C        -1.8911056978        5.7485451889       -5.2250159270
 C        -0.8487132388        3.4400009795       -5.0763992283
 H         0.4104534607        3.8034676597       -2.6242986781
 H        -1.0020846352        2.6491310852       -2.6496669849
 H        -0.7100410546        3.7257060927       -1.2191307673
 H        -4.5921651452        5.4846825953       -4.2662688574
 H        -4.2159889657        4.4279334012       -2.7275093346
 H        -6.4449591579        3.5605314161       -3.3338550008
 H        -5.6361078334        2.9455732686       -4.7867004242
 H       -10.2954743428        6.4546249571       -5.2110172596
 H        -8.8350343209        7.1259003165       -4.6512367240
 H        -9.9881697639        7.7093267475       -2.7823953809
 H        -9.8885139720        6.0061126607       -2.2885705877
 H       -13.3153499788        3.9377949102       -2.4349451033
 H       -13.8329885609        3.5066020597       -0.8152441694
 H       -10.9678776706        3.1033696420       -1.7283636846
 H       -12.2128164375        1.8572946424       -2.1160330931
 H        -8.4303354429       -0.5816609542        2.0247876542
 H       -10.0199025456       -1.2552950323        2.3063424842
 H        -8.4060592871        0.7779710033        3.9522203696
 H        -9.0502388451       -0.8691169128        4.4266152848
 H       -12.9154802386        2.7360242995        7.0526537284
 H       -12.8271053377        1.1664111411        6.3317769623
 H       -14.9825481580        1.6488653219        5.8734477092
 H       -14.2434227316        2.2810061450        4.3794497283
 H       -14.3075965143        6.8006258549        4.3759825839
 H       -13.4476767497        6.4134463343        2.8456545130
 H       -13.0455456730        5.5972377021        4.3466723136
 H       -16.9611624356        2.7778007077        4.8248628230
 H       -16.3562837629        2.9703740244        3.1783066999
 H       -17.8147332139        3.9261954075        3.7810545410
 H       -17.2535399220        6.1425495431        4.4695638380
 H       -16.1106064934        6.5803663186        5.6144070927
 H       -17.3941079721        5.3490543270        5.9363634698
 H       -10.4858724212        2.2419019250        7.4581731415
 H        -9.1558301170        1.2619400963        6.9477103372
 H       -10.7221951850        0.5183389729        7.0785244878
 H        -9.5241255210        3.1199557524        3.8212733862
 H        -8.3270737070        2.6437162984        5.0792538977
 H        -9.6454855900        3.8450524655        5.4477448561
 H       -10.3331830909       -1.4041508751       -0.0918929988
 H       -11.4363841475       -0.8391020216       -1.2937663669
 H       -12.0418802307       -1.1188892810        0.2137455769
 H        -9.0352986911        2.0026148307       -0.6357577438
 H        -9.6202222303        0.9915354194       -2.0022163931
 H        -8.6690511350        0.2067566666       -0.7462775863
 H       -12.7618343842        8.2199794728       -0.1815714439
 H       -11.6984902578        8.6103736762       -1.5606325974
 H       -11.1937158163        7.2892166279       -0.2402487648
 H       -14.6111300605        6.7811108487       -1.0151558599
 H       -14.5051763482        6.1269491107       -2.7597275829
 H       -14.1845912045        7.7879221642       -2.4678652252
 H        -8.0819402602        4.8287735840       -7.7551493511
 H        -7.9717508363        6.2632281460       -6.7860735810
 H        -9.5603814043        5.2577468201       -6.8952045283
 H        -9.0998324399        2.7306894679       -6.6073107303
 H        -8.5066433594        2.3440490377       -5.0233500938
 H        -7.4147074969        2.5158913108       -6.3768454546
 H        -0.9219505445        6.2666351956       -5.0873402721
 H        -2.5660268394        6.4190825639       -4.7637906924
 H        -2.0386012348        5.6348613375       -6.2915327313
 H        -1.1034522207        3.2873721592       -6.0965666066
 H        -0.9896956278        2.4454938568       -4.5907657085
 H         0.1580492565        3.7489610032       -4.9144049808
 Na      -12.0915195180        3.7020542532        1.9898399660
