117

 C        -7.0018782649       -0.3305765095       10.7749198185
 C        -6.0055229254        0.8082448429       10.3657726777
 O        -5.8943031804        1.9315725831       10.7473944797
 C        -5.1243744024        0.4152520328        9.1270339183
 C        -6.0657829554        0.3338054078        7.9738150473
 O        -6.7110240199       -0.6878442127        7.7867090862
 C        -6.3982259538        1.5832999444        6.9687416581
 C        -7.3089932730        1.0330351740        5.8210982936
 C        -7.0959902008        1.7665712725        4.4803319348
 O        -6.5541796141        2.8589379983        4.4788813360
 C        -7.6597541550        1.2007962312        3.1627065926
 C        -8.9152913242        2.2318405067        2.9222665651
 O        -9.8682812252        2.0030876318        3.6357203287
 C        -8.8062853197        3.6882501585        2.2579593955
 C       -10.0223986509        4.5986425500        2.5689319749
 C       -10.4354433897        5.1487176699        1.2072959962
 O       -10.0277621960        4.7532022660        0.1474267769
 C       -11.6007824462        6.2591748048        1.2570170628
 C       -12.5904573208        5.6131148769        0.1722672434
 O       -12.4172381680        5.8943581448       -0.9708385067
 C       -13.8006410424        4.8255547825        0.6491577165
 C       -14.0578174149        3.6217574933       -0.2404809460
 C       -12.9462863009        2.6156619318       -0.5295384058
 O       -12.1953401758        2.1493370459        0.3017053088
 C       -12.9976012164        1.8576891001       -1.9322844317
 C       -12.4686284054        2.7164803234       -3.0979010688
 O       -11.6564497349        3.5863374904       -2.7834765960
 C       -12.7098241127        2.4607666635       -4.5029145752
 C       -11.5863871210        2.9584503770       -5.3833936740
 C       -11.9737413054        3.2355191222       -6.8363133474
 O       -13.0972303863        2.9297810856       -7.1293721756
 C       -11.0535421167        4.0751055686       -7.9254397096
 C       -10.4747272075        5.2846325911       -7.1973240032
 O        -9.5276921390        5.2456054487       -6.4156068472
 C       -11.3016314672        6.6494247936       -7.2133438749
 C       -10.9414950970        7.7275768838       -6.0515602519
 C       -10.3948324909        7.0201762867       -4.7518247320
 O       -11.0003500201        6.1237033567       -4.1584866988
 C        -9.0187305788        7.4186823449       -4.1406688373
 C        -8.2099796652        6.1435884127       -3.7608723626
 O        -8.5667549588        5.3565648366       -2.8978781458
 C        -7.0720818043        5.8353470111       -4.7327114096
 C        -8.2759551757        8.3483319603       -5.1206476529
 C        -9.2721012750        8.2161407930       -2.8131869678
 C       -10.0188002246        3.0632985772       -8.4182111791
 C       -11.8914544783        4.4781981555       -9.1433198031
 C       -12.0925491351        0.5884827637       -1.8601266675
 C       -14.4003346149        1.4899664247       -2.3060240878
 C       -12.1341349324        6.4637741951        2.6785931527
 C       -11.0708019188        7.5295798309        0.5732640891
 C        -6.5585191800        1.2065528905        2.1097924009
 C        -8.2643607451       -0.1667766214        3.3651552347
 C        -4.0989145563        1.5419090664        8.8869757096
 C        -4.4999164614       -0.9580067317        9.3587282802
 H        -7.3647487244       -0.8652346624        9.9439413099
 H        -7.8848505169       -0.0920794150       11.4048754580
 H        -6.4372224785       -0.9609737048       11.4730203473
 H        -5.4653804453        2.0153936680        6.6376863801
 H        -6.8772385215        2.3949088012        7.4633688743
 H        -8.3803410788        1.0538285726        6.0674171889
 H        -7.0988820885        0.0290054146        5.6730217131
 H        -8.6735221814        3.6792344802        1.2060564117
 H        -7.9678794659        4.0691839377        2.7728000233
 H        -9.6008682857        5.3969703495        3.2077916141
 H       -10.9602440743        4.1909570991        3.0124045817
 H       -14.7004794381        5.3933477754        0.6259012309
 H       -13.7778098124        4.5330518760        1.7643557306
 H       -14.5512518626        3.9787625900       -1.2184419546
 H       -14.6816091608        3.0020228258        0.3598375635
 H       -13.6660019711        2.9257780957       -4.9262734458
 H       -12.8879164066        1.3712721986       -4.6235704119
 H       -10.7079844203        2.2400593947       -5.4223412351
 H       -11.1124365598        3.9254254791       -5.0502495365
 H       -12.3509204901        6.4409567407       -7.0294734146
 H       -11.4100001870        7.1000489780       -8.2073315563
 H       -11.8381633162        8.2699598054       -5.7103160298
 H       -10.3812700695        8.5611660191       -6.4122943072
 H        -7.0313682568        4.7926234829       -5.0138005907
 H        -6.1197498381        6.1688181214       -4.1776316682
 H        -7.2025179564        6.3114487737       -5.7152006324
 H        -9.0132476853        9.2609683429       -5.2082525827
 H        -8.3260997432        7.8907965465       -6.0903189269
 H        -7.2879253832        8.6385015849       -4.9376238547
 H        -9.6112502468        7.5214982947       -2.1404955792
 H        -9.9707191870        9.0157872873       -2.8553691931
 H        -8.4040906817        8.6927416386       -2.3756339520
 H       -10.4545361444        2.2786812792       -8.9752271045
 H        -9.5543837171        2.6241851199       -7.4834702399
 H        -9.1910188783        3.5565800897       -9.0125493368
 H       -12.1592522559        3.5217785984       -9.6127022488
 H       -11.2783057921        5.1320903208       -9.8511760171
 H       -12.8218750508        5.0775564369       -8.9367296723
 H       -12.4615809866        0.0213668786       -1.0107727076
 H       -11.0954342842        0.8634270981       -1.5946345276
 H       -12.0157325754        0.0941351399       -2.8038014291
 H       -14.8855129856        1.0920140812       -1.5226511876
 H       -14.3735481742        1.0318635150       -3.2811608306
 H       -14.9425422689        2.4164651340       -2.5054817800
 H       -13.0580558379        7.0683382266        2.5531588121
 H       -11.4830271306        6.9646805820        3.2844438692
 H       -12.4731718383        5.5497092379        3.1747942552
 H       -10.7477011292        7.3483910144       -0.4206394339
 H       -10.2735617936        7.8758399322        1.2224753719
 H       -11.8621880878        8.2171787107        0.6854618722
 H        -5.8557242864        0.3977919655        2.2810179959
 H        -6.0093173095        2.1077241119        2.1388055325
 H        -6.8941546740        0.9881964605        1.1182873602
 H        -9.0983927511       -0.1455007075        4.1161163825
 H        -7.4362532945       -0.8376260531        3.7608121349
 H        -8.6779527446       -0.5909767568        2.3980387186
 H        -4.6193202890        2.4536228885        9.1834721277
 H        -3.7445632945        1.7783867763        7.8965684694
 H        -3.1622883004        1.5493255977        9.5329647558
 H        -5.2310679198       -1.7662364733        9.3663491284
 H        -3.8709939418       -0.9068030878       10.2510959651
 H        -3.7094159852       -1.2131337402        8.5803542072
 Na      -10.6708060938        5.5183932436       -2.0042600537
