117

 C        -0.5589955979        3.6455198167       -2.2872774178
 C        -1.4373483491        4.6380413693       -3.0432048208
 O        -2.0412606742        5.5632419662       -2.4228612348
 C        -1.8731306653        4.3303880261       -4.5502787090
 C        -3.2659143259        3.7135219618       -4.7252611715
 O        -3.5956531748        2.9264057430       -5.5960221765
 C        -4.3893917025        4.2148415755       -3.6668455202
 C        -5.8208652316        3.8701249851       -4.1905546118
 C        -6.5382319878        4.8065983464       -5.1716934897
 O        -6.2067806821        5.9193872824       -5.5235559681
 C        -7.9945582772        4.3931995464       -5.6290997032
 C        -8.8970765114        4.6672364169       -4.4094640625
 O        -9.3623039821        3.7290681658       -3.8177087630
 C        -9.2469393963        6.1726241619       -4.1634034323
 C       -10.0940819456        6.4245579730       -2.9031431418
 C       -11.5733357992        6.1041492861       -3.0974485824
 O       -12.0986619567        5.7919187042       -4.1387278199
 C       -12.5855899814        6.3304056915       -1.7641826634
 C       -12.5123471390        5.1438571140       -0.8236626892
 O       -11.9613967020        5.2171326687        0.2656120122
 C       -12.9888889330        3.8061391058       -1.3567264410
 C       -11.8526430102        2.7562741520       -1.4028621826
 C       -11.8141929670        1.9567241479       -0.1035239327
 O       -12.6956195766        2.1579365657        0.7431166678
 C       -10.7713786532        0.7887788880        0.1531090907
 C       -10.2851269225        1.0146686651        1.6504679406
 O       -10.0884990245        2.1831570347        1.9803783388
 C        -9.8623321132       -0.2157258117        2.3904908122
 C        -9.2956229142        0.1277887949        3.8053767291
 C       -10.4946497959        0.6866509543        4.5507138959
 O       -11.6440757526        0.2830667299        4.4627148286
 C       -10.4164608890        1.9541821217        5.4809279664
 C       -11.8122280161        2.6477704921        5.2141593765
 O       -11.8484619776        3.4603648819        4.3243047582
 C       -12.9819646094        2.4375132474        6.1502119359
 C       -14.3835230317        2.5492617015        5.5740468847
 C       -14.9816002270        3.9845454439        5.7888054142
 O       -14.6063939311        4.6070826622        6.7867639966
 C       -15.8536583629        4.5778460206        4.6507227461
 C       -14.7280712849        4.7989901533        3.5713339085
 O       -14.5305174880        3.9145695072        2.7476481548
 C       -13.9923666326        6.1784573987        3.6648574349
 C       -16.8475856839        3.6143123192        4.0037557342
 C       -16.6046861622        5.9647202661        4.8733750695
 C       -10.3451637343        1.4975002329        6.9067657202
 C        -9.2228162462        2.8127242915        5.0753583979
 C       -11.5507272840       -0.4574206915       -0.1212066840
 C        -9.4673221335        0.9144768795       -0.8136659600
 C       -12.2371410447        7.5054926855       -0.9412772782
 C       -14.0138706883        6.4150846116       -2.3143865387
 C        -8.4608152163        5.2191104830       -6.9169589804
 C        -8.1396204970        2.8918855767       -5.9938771515
 C        -1.9954958932        5.6202827765       -5.3494601039
 C        -0.7735663452        3.4165494516       -5.3447398855
 H         0.2385246102        3.3862125850       -3.0073896539
 H        -1.0648974883        2.7893890606       -1.9273803922
 H        -0.0725509036        4.1717879503       -1.4999853341
 H        -4.3530603563        5.3102856416       -3.6787359124
 H        -4.2000822933        3.7456326669       -2.6950598569
 H        -6.4518724365        3.8282700779       -3.2763450092
 H        -5.8077877019        2.8482579269       -4.5797953309
 H        -9.7172559412        6.5587428671       -5.0696032802
 H        -8.3779906371        6.7969870856       -4.1213145274
 H       -10.0897268844        7.4702586685       -2.5787306368
 H        -9.7626838742        5.8565534745       -2.0242408475
 H       -13.2933487500        3.8653772365       -2.3541703386
 H       -13.8398346729        3.4144790985       -0.8319797727
 H       -10.8906962397        3.3256412920       -1.4819886469
 H       -11.9472453488        2.0607106690       -2.2825169487
 H        -9.1473319236       -0.8186896209        1.7790903932
 H       -10.6661381573       -0.8782966767        2.5271925814
 H        -8.5672830417        0.9435159682        3.7743452219
 H        -8.9371642069       -0.6941949453        4.3934769767
 H       -12.8403424854        3.2285915739        6.8698054954
 H       -12.8580470647        1.5084506576        6.7262685373
 H       -15.0445234937        1.9079453418        6.1998507636
 H       -14.2275445206        2.2432141611        4.5000269262
 H       -14.6718375993        6.9799670617        3.5208882990
 H       -13.1860980390        6.2198619066        2.9147899898
 H       -13.5170806150        6.3192366374        4.6716604190
 H       -17.7909823299        3.4565048427        4.4927760009
 H       -16.4053932058        2.6129055046        3.9126463602
 H       -16.9466037409        3.8420126513        2.9134286050
 H       -17.0243285255        6.4732305395        4.0817128656
 H       -16.1544794928        6.7966201078        5.4360888410
 H       -17.4431229606        5.7777930768        5.5413850621
 H       -10.2953577543        2.3202429794        7.6281231779
 H        -9.4563941501        0.9276999380        7.1541658179
 H       -11.1588092139        0.8698872336        7.0689261868
 H        -9.2953850252        3.1843953616        4.0605479858
 H        -8.3329725668        2.1991230011        5.1819822656
 H        -9.0872634154        3.5678554235        5.7978575866
 H       -10.8845392315       -1.2627405493       -0.1005120228
 H       -12.0168608399       -0.5136057068       -1.1050258956
 H       -12.4464296382       -0.6761165542        0.5095973098
 H        -9.1345694052        1.9217558885       -0.7076571347
 H        -9.8278553646        0.8997096005       -1.8320898436
 H        -8.7583710114        0.1240507751       -0.7000558941
 H       -12.6541783343        7.3866747757        0.0089830555
 H       -12.6438631598        8.3492591321       -1.3825460461
 H       -11.1620518803        7.6811115919       -0.8757958850
 H       -14.7897187533        6.5614760644       -1.5008513699
 H       -14.3635098185        5.5935996827       -2.9074591508
 H       -13.9698887214        7.2678759239       -2.9524047742
 H        -7.7093450177        5.1232252507       -7.6453587938
 H        -8.5080535016        6.2821907447       -6.5744602845
 H        -9.3756931243        4.7540238764       -7.3817632939
 H        -9.0866899175        2.6218195138       -6.4467722396
 H        -7.9796589575        2.1724253404       -5.1540107518
 H        -7.3793348558        2.6330167918       -6.7064049231
 H        -1.0361487919        6.0779128751       -5.5780113327
 H        -2.5496914147        6.3587074844       -4.8014868142
 H        -2.5156183525        5.3852102661       -6.3026667005
 H        -1.2102502127        3.2077164053       -6.2820809829
 H        -0.5080213085        2.4676205554       -4.8477340551
 H         0.1749878794        3.9982410443       -5.4364433349
 Na      -12.2212933764        3.8645515740        2.1864064304
