117

 C        -0.5416233198        3.6544283814       -2.5558111368
 C        -1.5811874410        4.5588066496       -3.2430297423
 O        -2.1486607676        5.4254932262       -2.5716110893
 C        -1.9016312279        4.3612284711       -4.7744530409
 C        -3.3280030544        3.7658930947       -4.8393849399
 O        -3.5591715864        2.7956009489       -5.5429276514
 C        -4.3921078957        4.2880673694       -3.8758895412
 C        -5.7737133836        3.6756632692       -4.2132602854
 C        -6.5339660190        4.6095444522       -5.0303727735
 O        -6.1158834378        5.7090361892       -5.2778402673
 C        -7.9726925047        4.2827991119       -5.5633538458
 C        -8.8120777019        4.5718779725       -4.3030799235
 O        -9.0770759209        3.6624467762       -3.5763984237
 C        -9.1764173942        5.9927661364       -3.8966346762
 C       -10.0124640759        6.0942406040       -2.6500121799
 C       -11.5158298981        5.9796728281       -3.0598283551
 O       -11.9019791585        5.5271364825       -4.1141099488
 C       -12.5983914758        6.3939302947       -1.9341063818
 C       -12.4912666400        5.1482212056       -1.0288473056
 O       -12.0253990337        5.2102887380        0.1179496029
 C       -12.9133998872        3.8410370469       -1.7929218651
 C       -11.9301797894        2.6371791498       -1.6422129007
 C       -11.9737017323        1.9837815333       -0.2678740840
 O       -12.9100158977        2.0873249590        0.4997580516
 C       -10.9301367021        0.8959025622        0.0767878797
 C       -10.3442740742        1.0700147974        1.5415763454
 O       -10.2810935981        2.1868269467        2.0401599909
 C        -9.8189487731       -0.0799804095        2.3819726438
 C        -9.4721215129        0.2534282371        3.8495814853
 C       -10.6509772052        0.7320893500        4.7362246045
 O       -11.6939831364        0.1313262117        4.7926512719
 C       -10.4065388370        1.9629354152        5.6805557207
 C       -11.8262100090        2.6963892169        5.6070494527
 O       -11.9394052584        3.6253597742        4.8202842529
 C       -13.0830900706        2.4493455833        6.4801792339
 C       -14.3356214093        2.7843122941        5.5972202109
 C       -14.8661266613        4.2109032984        5.7468309541
 O       -14.7789504937        4.8935381482        6.7518815295
 C       -15.7733560368        4.7987900035        4.5183960291
 C       -14.7798156461        5.0098927072        3.4213783416
 O       -14.4244880479        4.0807475375        2.7194635637
 C       -14.0807891475        6.4002228035        3.3590679671
 C       -16.7887584570        3.6675366914        4.1390073262
 C       -16.5016650708        5.9171311205        5.0948897265
 C       -10.1154204214        1.3684525164        7.1151620504
 C        -9.3129271073        2.9800381766        5.3331393898
 C       -11.6244627901       -0.4583211502        0.1065032829
 C        -9.7088777271        0.8382674696       -0.8514923637
 C       -12.2431806850        7.7357752197       -1.2936839380
 C       -13.9801851465        6.4813338150       -2.6376061208
 C        -8.2165571301        5.2508969773       -6.7911205120
 C        -7.9166745246        2.8767753906       -5.9834666316
 C        -1.7765156522        5.7911964819       -5.3840006539
 C        -1.0277713562        3.3923884152       -5.6019424910
 H         0.4734780058        3.9461052688       -2.8913044860
 H        -0.7673354877        2.5943611561       -2.8248328503
 H        -0.6058451998        3.8100422289       -1.4764880008
 H        -4.3407371449        5.3447033515       -3.9844284454
 H        -4.0298592481        3.9515824545       -2.9147817611
 H        -6.2917513966        3.5007215189       -3.2469264163
 H        -5.7423835876        2.6546693654       -4.6415092978
 H        -9.6875766119        6.5217373200       -4.7553509165
 H        -8.2717695472        6.5846192340       -3.7530042698
 H        -9.9373793447        7.0301456505       -2.1903257046
 H        -9.7511583126        5.3066316790       -1.8684669501
 H       -12.9528352425        3.9671505117       -2.8833018175
 H       -13.9632364937        3.5152797214       -1.5257086196
 H       -10.9115655013        2.9699375043       -1.7944581218
 H       -12.0944334203        1.9226590772       -2.4109764783
 H        -9.1149712822       -0.8367173408        1.9669333092
 H       -10.7319231769       -0.6899910275        2.5238517961
 H        -8.7827703461        1.0868414796        3.9203615493
 H        -8.9384659758       -0.5781941356        4.4307423325
 H       -13.1054225469        3.1502751599        7.3199343813
 H       -13.1262990258        1.4016373484        6.9460228450
 H       -15.1041858053        2.1400242299        6.0067382649
 H       -14.1199808763        2.5732017458        4.5584191300
 H       -14.5197244058        6.9392850800        2.5374594817
 H       -13.0095275430        6.2449188071        3.1683659687
 H       -14.1646029775        7.0299243856        4.2609281622
 H       -17.4108666366        3.4281248145        4.9899615327
 H       -16.5090262974        2.7019701012        3.7596147711
 H       -17.4407640378        4.0736042641        3.4080379431
 H       -17.0438319932        6.5144558405        4.3977578629
 H       -15.9313880440        6.6974558038        5.6176700669
 H       -17.1679817560        5.6962958686        5.9086043275
 H       -10.1519313214        2.2161701085        7.8939743228
 H        -9.1251069543        0.8589528345        7.3238008405
 H       -10.9059178223        0.7400995017        7.2990527966
 H        -9.2964412637        3.2091880655        4.2645442434
 H        -8.3579267795        2.6051495455        5.7108602100
 H        -9.4840354260        3.9186633887        5.9244200090
 H       -10.9176055874       -1.2742046321        0.3238480920
 H       -12.1059175904       -0.7500964370       -0.8153942990
 H       -12.4239172245       -0.5094566617        0.9279774116
 H        -9.2855741454        1.8256529166       -0.8304388316
 H       -10.1287286939        0.6611143890       -1.9009233038
 H        -9.0000333453        0.0435419990       -0.5378455532
 H       -13.1601157859        8.1177807418       -0.8344623833
 H       -11.8508049652        8.4218390831       -2.0511676365
 H       -11.4209101189        7.6766166683       -0.5287188055
 H       -14.7939914795        6.0963714136       -2.0200451533
 H       -13.9385522181        5.7770282492       -3.4027927850
 H       -14.2475786163        7.4777396019       -3.0060562831
 H        -7.9497240978        4.6816385776       -7.6553149394
 H        -7.7466347681        6.1984296640       -6.6872995461
 H        -9.2925183457        5.3153994750       -6.8845322506
 H        -8.8752612373        2.6692109465       -6.4098695223
 H        -7.7636508862        2.1234668630       -5.2021609978
 H        -7.1892912145        2.6682402170       -6.7570104340
 H        -0.7534141545        6.0931350035       -5.2405119707
 H        -2.4906018876        6.5349912643       -4.9944880328
 H        -1.9788899895        5.7392528959       -6.4848708064
 H        -1.2794188269        3.5350147721       -6.6314641348
 H        -1.2514605520        2.3974872686       -5.3009250072
 H         0.0521761877        3.6143500207       -5.4118599026
 Na      -12.0982323027        3.6162094787        2.0570533425
