117

 C        -0.0393833083        3.5600938158       -3.0373700049
 C        -1.2117971881        4.4595716271       -3.4380591582
 O        -1.7838946310        5.2005043052       -2.6204136849
 C        -1.8136875979        4.3031566858       -4.8822485111
 C        -3.1330809175        3.5132698994       -4.9432001435
 O        -3.4031504047        2.6786695834       -5.7623692407
 C        -4.2773297015        3.9146066553       -3.8630872077
 C        -5.6364667403        3.3733201531       -4.3796200676
 C        -6.4182751426        4.5455462952       -5.0354766307
 O        -6.0130189941        5.6611215803       -5.3134271648
 C        -7.8785744287        4.2148436584       -5.3298871544
 C        -8.6596781848        4.5545814947       -4.0257885380
 O        -9.2102976726        3.6952135550       -3.2995555118
 C        -8.7732249137        6.0210580440       -3.7546770011
 C        -9.8238723412        6.2394066371       -2.6791993516
 C       -11.2828895640        6.0138536175       -3.1479907089
 O       -11.4861458870        5.5885268497       -4.2455786175
 C       -12.5685417518        6.2414975409       -2.1394794542
 C       -12.6430834483        4.9412830107       -1.2809963754
 O       -12.5171378262        5.0075775374       -0.0917841747
 C       -13.0292228035        3.5833332575       -1.8908009882
 C       -12.0146587606        2.4606806718       -1.6316567496
 C       -12.2428139336        1.7860503133       -0.2276692163
 O       -13.2231633480        2.0485435849        0.4748529429
 C       -11.1823896799        0.6971582528        0.2910446100
 C       -10.7212127929        1.0649075407        1.7381578681
 O       -11.0051493967        2.1509264489        2.1675454119
 C       -10.0773346064        0.0272796325        2.6385297834
 C        -9.4402093539        0.7349136498        3.8239702552
 C       -10.5082378814        1.0330684665        4.9325888753
 O       -11.3820338691        0.1696514125        4.9713020432
 C       -10.5632888525        2.2715424347        5.9069529021
 C       -11.9472841275        2.8912932295        5.4116429923
 O       -11.9719371723        3.6409680152        4.4733607238
 C       -13.1722603539        2.3807288721        6.1757391566
 C       -14.5643792213        2.8733260560        5.7668106308
 C       -14.7888776723        4.3587387016        5.8953820251
 O       -14.2473295763        5.1203908577        6.6019116354
 C       -15.7520509181        4.8634944260        4.7169140599
 C       -14.7185767292        5.1491925026        3.6018031182
 O       -14.2384299032        4.1320943540        3.0761540660
 C       -14.0920211630        6.4859283298        3.2084328223
 C       -16.8741049809        4.0159940649        4.1540477971
 C       -16.3816373006        6.2128132385        5.1811770728
 C       -10.5396899306        1.6641413824        7.2935061004
 C        -9.3764037333        3.3038995256        5.5431236822
 C       -11.7628395640       -0.7262968487        0.0747263010
 C        -9.9044938483        0.8483013064       -0.6387260474
 C       -12.3458044127        7.4567410464       -1.1946318307
 C       -13.8118924376        6.3874463403       -3.0173069564
 C        -8.3206057519        4.9245805477       -6.6161734295
 C        -8.0746419438        2.6629617281       -5.6633722371
 C        -2.1487487354        5.7430497476       -5.3865428583
 C        -0.7905373958        3.5435684383       -5.8080335350
 H         0.3673355850        4.2006008381       -2.2096684254
 H         0.7572182301        3.5268310148       -3.7677395283
 H        -0.3183502406        2.5239097108       -2.7407076013
 H        -4.2975144056        4.9875665450       -3.7992077670
 H        -3.8378502566        3.5694819431       -2.9608914630
 H        -6.2354778278        2.8955957413       -3.5675170673
 H        -5.5062477688        2.5004174625       -5.0327182059
 H        -9.0852689796        6.4911429225       -4.6977227989
 H        -7.8620840673        6.4896442394       -3.3358882469
 H        -9.7782019830        7.2336353259       -2.1940778273
 H        -9.6177803090        5.4661091710       -1.9286474793
 H       -13.2038000013        3.6454470376       -2.9766260561
 H       -13.9859024673        3.2383895095       -1.3966406163
 H       -11.0320949801        2.8505130067       -1.7904299122
 H       -12.0482404415        1.6545413287       -2.3298431126
 H        -9.1655266211       -0.4675194289        2.1826801476
 H       -10.6683336862       -0.8273520486        2.8850246045
 H        -8.8541132096        1.6588055504        3.4484928407
 H        -8.6126850128        0.1767584059        4.2315262490
 H       -12.9104833906        2.6671124227        7.2273767143
 H       -13.1548773603        1.2615625410        6.1884327860
 H       -15.3611038375        2.3285871722        6.2798041010
 H       -14.7173670333        2.4951629170        4.7435461358
 H       -14.7808134785        7.3070998843        3.1045448099
 H       -13.6195151879        6.2750722812        2.2469961630
 H       -13.3184497469        6.7656039814        3.9353263332
 H       -17.7271300689        3.8178890777        4.7249666492
 H       -16.5261788234        3.0778354799        3.8517015091
 H       -17.3653720476        4.4833089568        3.2725674326
 H       -16.7844539655        6.8985991678        4.4545006112
 H       -15.8409432924        6.8797159177        5.8346713872
 H       -17.3005753588        6.0899998554        5.7689110969
 H       -11.1695404641        2.2630579333        7.9273703292
 H        -9.4849990828        1.6011668976        7.6021477620
 H       -10.9527020185        0.5722662435        7.3400729428
 H        -9.2836034072        3.4759091269        4.4365868237
 H        -8.4114398982        2.8625714666        5.8925224044
 H        -9.5587601251        4.2598571235        5.9585973446
 H       -11.2401110414       -1.4693484334        0.6701021307
 H       -11.6815368077       -0.9871227177       -1.0241940142
 H       -12.7536003129       -0.8659474332        0.4227403951
 H        -9.3882125507        1.8499923541       -0.4261098187
 H       -10.3123492674        0.6965418335       -1.5942432303
 H        -9.1164091335        0.1124560421       -0.3852184564
 H       -13.1231057147        7.4560639019       -0.3627837804
 H       -12.3977678117        8.4758098327       -1.6893665733
 H       -11.3958635286        7.3774852416       -0.6607219086
 H       -14.5597222406        6.9555442673       -2.4879315480
 H       -14.2546294829        5.4668955698       -3.4634380268
 H       -13.5532718620        7.0759320914       -3.7895682733
 H        -7.7943948928        4.5442072552       -7.4603568902
 H        -8.0485049913        5.9807708039       -6.5569100004
 H        -9.3777431991        4.8479455465       -6.6001932074
 H        -9.1551804544        2.4492853099       -5.6968292012
 H        -7.7310604046        2.0123084682       -4.8567181778
 H        -7.6203418954        2.2562729299       -6.5410626277
 H        -1.2391531385        6.3359304732       -5.5508636764
 H        -2.7182766607        6.2251008036       -4.6304953113
 H        -2.7178879940        5.7031564797       -6.2938038581
 H        -1.1860852462        3.5526095964       -6.7962455020
 H        -0.6888471259        2.4877340112       -5.4833435957
 H         0.1277655071        4.0644262263       -5.8140748871
 Na      -12.1720429208        3.9283077115        1.8518509041
