117

 C        -6.8653922201       -0.1910814951       10.7545212148
 C        -5.8358892911        0.8949500791       10.3514464689
 O        -5.9791348396        1.9940686152       10.8689952509
 C        -4.9671323417        0.5627810355        9.1462363255
 C        -6.0550319554        0.3747862604        7.9322811060
 O        -6.5383849000       -0.6861066401        7.7182498510
 C        -6.3351131593        1.5615903600        7.0518762608
 C        -7.1701952676        1.0617115492        5.8586965695
 C        -7.1009518314        1.8773784552        4.5337604085
 O        -6.6882036271        3.0154380197        4.4269801599
 C        -7.7780965133        1.2520271907        3.1853242244
 C        -9.0241213165        2.2314327178        3.0987048090
 O       -10.0542195825        1.9668390696        3.6336061090
 C        -8.8357727597        3.5446477257        2.3260918406
 C       -10.0338430543        4.5163157995        2.5330256218
 C       -10.5734484792        5.1451707143        1.2514019459
 O       -10.0039202663        4.8513382411        0.2178870032
 C       -11.7321132909        6.3283827836        1.2105327906
 C       -12.7625756294        5.7026865371        0.1925316313
 O       -12.6293270615        5.6847486642       -1.0248722738
 C       -13.9175294494        4.8118326147        0.6714618880
 C       -14.1321425672        3.6640869816       -0.3370932851
 C       -12.9646405390        2.5476598789       -0.5095731645
 O       -11.9995669300        2.4005709262        0.2748196081
 C       -13.0217184472        1.8543299856       -1.8915544180
 C       -12.3185580631        2.7864645821       -3.0807428083
 O       -11.6656084604        3.7244989244       -2.6968545383
 C       -12.6167426599        2.4853406088       -4.5321546684
 C       -11.5572384689        3.0031399739       -5.4442869605
 C       -12.1135308339        3.2316850866       -6.8980743807
 O       -13.1350656445        2.6894013500       -7.2566971465
 C       -11.2023205430        4.0116141269       -7.9011845604
 C       -10.5988310233        5.2221041935       -7.0857549251
 O        -9.5109421954        5.1215583939       -6.4992597629
 C       -11.3954408504        6.4823152389       -7.1310628516
 C       -10.8725192069        7.4807812289       -6.0967529782
 C       -10.3192508393        6.9399835768       -4.8554123700
 O       -11.1023684671        6.2515319971       -4.1752596822
 C        -8.9716132625        7.3849129514       -4.2553564076
 C        -8.1683203759        5.9940487427       -3.8527901888
 O        -8.4679031157        5.4207410809       -2.8758933830
 C        -6.9530890359        5.5974089330       -4.6502760635
 C        -8.0710788395        8.3802396554       -5.0790691210
 C        -9.1974452899        8.2546552530       -2.9163494438
 C       -10.0867578420        3.0602951149       -8.4066338230
 C       -11.8979343596        4.4844823027       -9.2377906239
 C       -12.1343563798        0.4850427560       -1.7689606384
 C       -14.5163215788        1.3605067827       -2.2208108822
 C       -12.3071676380        6.4641231750        2.5658348514
 C       -11.1098573492        7.7081222013        0.7326230524
 C        -6.6770957453        1.3357375982        2.0813904046
 C        -8.2252406557       -0.2605988654        3.4380296283
 C        -3.8288359539        1.5076714266        8.9245497386
 C        -4.2262591448       -0.8901206465        9.2616223842
 H        -7.2076330675       -0.7670276796        9.8451917702
 H        -7.7366634586        0.3031361460       11.1146742282
 H        -6.6857748045       -0.8687929111       11.6366890074
 H        -5.4535188883        2.0016426378        6.8293060297
 H        -6.8365787303        2.3264813642        7.5947414190
 H        -8.2364165510        1.0612989236        6.1019887704
 H        -6.9057491877        0.0094202044        5.6464231014
 H        -8.9597317720        3.1923601490        1.3160508867
 H        -7.8634853894        3.9015238205        2.5161557889
 H        -9.7680279937        5.3140981247        3.2906175680
 H       -10.8446240282        3.9228200127        2.8914171992
 H       -14.9013415733        5.3217294262        0.6708680642
 H       -13.8688342005        4.4557802249        1.7064995599
 H       -14.1584740802        4.1279492337       -1.3512520309
 H       -15.1194341951        3.2126699579        0.0221358826
 H       -13.5310891535        3.1517101913       -4.7716362765
 H       -12.9705228333        1.4623206055       -4.7529669143
 H       -10.6824321498        2.3317223926       -5.5961279305
 H       -11.0856229166        3.9731865478       -5.0492261029
 H       -12.4321691952        6.2631769061       -7.0160050312
 H       -11.4241280980        6.9180231265       -8.1302459156
 H       -11.5563151055        8.2039812103       -5.7753147769
 H       -10.1324747886        8.0724604764       -6.6100886775
 H        -6.6577118996        4.5640881519       -4.4232341329
 H        -6.1734687583        6.3292887398       -4.2963836033
 H        -7.1486744024        5.5699778471       -5.7414935035
 H        -8.6702280888        9.2287851178       -5.2215702326
 H        -7.8461382585        7.9828035954       -6.0489557558
 H        -7.1249282252        8.6601939799       -4.6051581384
 H        -9.8161730980        7.6357810005       -2.2636872838
 H        -9.6975087657        9.1577611255       -3.1221138612
 H        -8.3278197465        8.6040362818       -2.3130335209
 H       -10.4855102340        2.2808965506       -9.1162599300
 H        -9.6452952594        2.5311909738       -7.5459222254
 H        -9.2910643673        3.6173940297       -8.8341332104
 H       -12.4193445469        3.5981545436       -9.6694526058
 H       -11.1714302015        4.9690276445       -9.9209020672
 H       -12.6971366177        5.1999258561       -9.0661267239
 H       -12.5629995179       -0.1962939786       -1.0509401399
 H       -11.1897858540        0.7415607214       -1.3494452025
 H       -11.8792176383        0.0765543514       -2.7370230788
 H       -14.9687190066        1.2524618161       -1.2607222737
 H       -14.3934477023        0.4736144237       -2.7778559887
 H       -15.1531209104        1.9663541568       -2.8026938920
 H       -13.1332219179        7.1247922961        2.4779524941
 H       -11.5490051163        7.0539260531        3.2437583229
 H       -12.6255200425        5.6048759546        3.0583102198
 H       -10.7675204752        7.7397874601       -0.3124069465
 H       -10.3076840147        7.8545489800        1.4275652326
 H       -11.8615612085        8.4139258028        1.0233038879
 H        -6.0376141277        0.4571997629        2.1941084241
 H        -6.0129987650        2.2019462812        2.1954012969
 H        -6.9988021424        1.2366885390        1.0731539019
 H        -8.9951249468       -0.3514301559        4.2525666973
 H        -7.3351259735       -0.8986190238        3.6242406760
 H        -8.7318235682       -0.6407669657        2.5012725924
 H        -4.1076526927        2.5272601978        8.7634743648
 H        -3.2504013518        1.2779544621        8.0610068679
 H        -3.0964886599        1.5352535768        9.7468772230
 H        -5.0186810210       -1.6055581973        9.3432400570
 H        -3.5592090595       -0.9714759960       10.0858663601
 H        -3.5657185087       -1.1345153652        8.4718990302
 Na      -10.6788995986        5.5827349195       -2.0388922120
