117

 C         0.0193739265        3.6112558175       -3.0919262816
 C        -1.1896951984        4.3737925878       -3.4799785881
 O        -1.7303017424        5.1425279939       -2.7770496172
 C        -1.8466576375        4.3101172145       -4.9594119619
 C        -3.1305647626        3.5122022643       -4.9741592754
 O        -3.3225447107        2.5410032301       -5.7170282125
 C        -4.2507521674        3.9239669837       -3.9445519454
 C        -5.5397336096        3.3483240215       -4.4116763923
 C        -6.3686305060        4.3988657576       -5.0576183359
 O        -5.8722693756        5.4816726516       -5.2363235970
 C        -7.9113515621        4.1123016973       -5.2964248720
 C        -8.6975158374        4.5875483548       -4.0564170163
 O        -9.1976291624        3.7071354148       -3.3517864402
 C        -8.8207420177        6.0484945533       -3.7106599835
 C        -9.8366374170        6.2908749325       -2.5377636686
 C       -11.2222431268        6.0215397830       -3.1408976433
 O       -11.4412252216        5.5806894586       -4.2548190551
 C       -12.4784795085        6.2522793833       -2.1868366965
 C       -12.6183016507        4.9727435913       -1.3225531891
 O       -12.5047580815        5.0882201903       -0.0973293986
 C       -13.0361373384        3.6259442104       -2.0014376059
 C       -12.1004616640        2.4164933191       -1.6380368658
 C       -12.3408749418        1.8042124561       -0.2765639998
 O       -13.3568333906        2.1003532066        0.2949871681
 C       -11.1932171854        0.7256533215        0.2444877468
 C       -10.8144002229        1.0024424725        1.7872699390
 O       -10.9520439496        2.0949783776        2.2920352140
 C        -9.9711709715        0.0251838705        2.6622752809
 C        -9.2494452587        0.7743831456        3.9260606887
 C       -10.4628285171        0.9429727843        4.9087676486
 O       -11.3583787632        0.1624119485        5.0507236281
 C       -10.5474993509        2.2074079991        5.7902610990
 C       -11.9167139854        2.8597300178        5.4302146067
 O       -12.0359018091        3.6274603059        4.4711664822
 C       -13.1615775013        2.4249635894        6.2735617171
 C       -14.5115250472        2.8485652602        5.6750692019
 C       -14.7945727183        4.3459232905        5.8104850320
 O       -14.1528149057        5.0274952241        6.5786228914
 C       -15.8124632732        5.0540891579        4.7002085934
 C       -14.7179049420        5.1856437676        3.5646872590
 O       -14.4627459057        4.1237932937        2.9875057857
 C       -14.0407080182        6.4816439893        3.2260573093
 C       -16.9427298327        4.1739372663        4.2308021132
 C       -16.4561712037        6.3962119918        5.2240200620
 C       -10.4726718674        1.8432460610        7.2709892062
 C        -9.4829522617        3.3320176367        5.5910805992
 C       -11.7921584417       -0.7260500602        0.1023803230
 C        -9.8782866010        0.8147058825       -0.5495534377
 C       -12.5096071861        7.4304787426       -1.2578292568
 C       -13.7571656752        6.3291715438       -3.0302776145
 C        -8.2759289287        4.8793218471       -6.5817727454
 C        -8.2295265264        2.5649471194       -5.4960560328
 C        -2.0017319153        5.8727357049       -5.2710280085
 C        -0.8566015839        3.5891017904       -5.9074327619
 H         0.1983549019        3.8867005141       -2.0987410602
 H         0.8507911053        4.1015693357       -3.6686052866
 H         0.0150146011        2.5223001887       -3.3389603067
 H        -4.2347540040        4.9987712567       -3.8193825160
 H        -3.8794801335        3.5195881281       -3.0216376543
 H        -6.0273773541        2.7793396980       -3.5944940417
 H        -5.3534962032        2.4939634463       -5.1013448014
 H        -9.2118325449        6.5298129721       -4.5777817294
 H        -7.8689658764        6.5067027121       -3.3773300561
 H        -9.9208132582        7.3976895336       -2.2261322572
 H        -9.6328918605        5.6931266774       -1.6790769327
 H       -13.0032158482        3.6846918007       -3.1028098698
 H       -14.0206517593        3.3618532343       -1.6895938548
 H       -11.0714560514        2.6440973967       -1.9116538192
 H       -12.2982363588        1.5466829095       -2.2997485154
 H        -9.2678442099       -0.6076724557        2.1379714501
 H       -10.5923716539       -0.7738884635        3.1636962372
 H        -8.7544599380        1.7360912658        3.7691030081
 H        -8.4438338445        0.2192412697        4.4034192496
 H       -13.0202948854        2.9108434673        7.2975648432
 H       -13.1138580639        1.3647215299        6.4577638847
 H       -15.3860595187        2.2758694645        6.0957667442
 H       -14.5625673167        2.4927437251        4.6097277422
 H       -14.8106969188        7.3041544512        3.3685790607
 H       -13.5365455078        6.5051801842        2.2544151718
 H       -13.3529114592        6.6295244311        4.0354901323
 H       -17.8296987059        4.0036517745        4.8357750016
 H       -16.5563646220        3.2240720972        3.9359016366
 H       -17.4020420974        4.5513507779        3.3794555583
 H       -16.9908079699        7.0611869096        4.5420137231
 H       -15.7972029113        7.0564357126        5.6891276815
 H       -17.2259485906        6.2718901346        5.9394055615
 H       -10.8560958029        2.7390563921        7.8456024029
 H        -9.3992070859        1.5944898325        7.4542127768
 H       -11.0244939263        1.0356367384        7.5241156988
 H        -9.5733853758        3.9126836108        4.6740513367
 H        -8.4512384383        2.9952884471        5.7094609932
 H        -9.7611170561        4.0383015698        6.4107022405
 H       -11.1463720243       -1.5422698516        0.5833226501
 H       -11.9790119005       -0.9726864315       -0.9451600302
 H       -12.7186397946       -0.8345847369        0.6943743796
 H        -9.3767537941        1.7498462942       -0.4303307709
 H       -10.1789090779        0.4871096037       -1.5832858961
 H        -9.1933227332        0.0659784733       -0.1142075625
 H       -13.4778722334        7.4347476277       -0.8014953947
 H       -12.4346310537        8.3625868152       -1.7906260176
 H       -11.8313988355        7.4289773845       -0.4650853023
 H       -14.4794951481        6.7559592357       -2.4410201614
 H       -14.1031193375        5.4234801979       -3.4595057847
 H       -13.6364881645        7.0643006909       -3.8533313483
 H        -7.7301436851        4.4910312236       -7.4828645923
 H        -7.8766801581        5.8426469619       -6.4664730022
 H        -9.3128718425        4.9744504827       -6.6396905774
 H        -9.3161493932        2.4950562837       -5.5506092570
 H        -7.9776669066        1.9451616353       -4.6692965823
 H        -7.8349645996        2.0722067822       -6.3975540624
 H        -1.0295932038        6.4045124485       -5.3516773044
 H        -2.5217044843        6.3008645507       -4.3664358790
 H        -2.6045489279        6.0493621012       -6.1543044320
 H        -1.2453992230        3.5229569573       -6.9569260844
 H        -0.7298749033        2.5708981996       -5.5445777351
 H         0.0643024406        4.1198120868       -5.9092991545
 Na      -12.2542627702        3.8974118792        1.9436937254
