117

 C         0.2379819037        3.5504927691       -3.2568611189
 C        -1.0842475940        4.3721794821       -3.6258920752
 O        -1.7111681512        4.8652565005       -2.6536637151
 C        -1.6732106539        4.4047829144       -5.0235051815
 C        -2.9459549072        3.4203593991       -4.9567615040
 O        -2.9825581154        2.4741044209       -5.6724230394
 C        -4.1044534004        3.7557971821       -3.8464410747
 C        -5.5688042728        3.2029785045       -4.2283041562
 C        -6.4630851086        4.2378045904       -4.9529211629
 O        -5.9741844772        5.3086009583       -5.2685048606
 C        -7.9969239865        3.9933435043       -5.2059583934
 C        -8.7497457982        4.5797879618       -3.9136200451
 O        -9.2854174758        3.7910145329       -3.1510952329
 C        -8.7728289185        6.0894368570       -3.6175874617
 C        -9.8400674998        6.4293722450       -2.6099657389
 C       -11.2738544079        6.0074617643       -3.1321423701
 O       -11.4589791000        5.5880184763       -4.2426283401
 C       -12.5805198592        6.2352816247       -2.2524935190
 C       -12.6280832506        4.9074584178       -1.3010476382
 O       -12.3335867335        4.9229362050       -0.1304380430
 C       -12.8997525370        3.5890738952       -1.9992805800
 C       -12.0157647711        2.3792235249       -1.5791628425
 C       -12.1663729850        1.8440283705       -0.1927866257
 O       -13.2279623777        2.0184054772        0.4240962222
 C       -11.1776008689        0.7688751373        0.2970947953
 C       -10.8063599751        1.1140292572        1.8630185100
 O       -11.0452562850        2.1828023231        2.3876262347
 C        -9.9287779998        0.1631195722        2.5536382964
 C        -9.3300832348        0.6532561564        3.8162938766
 C       -10.4835436837        0.9655806320        4.9499810281
 O       -11.2435136698        0.0501936814        5.2531520495
 C       -10.5698189720        2.3348916533        5.7641033527
 C       -12.0144649339        2.9305466983        5.4761397435
 O       -12.1422513622        3.5987271377        4.4839458085
 C       -13.2500319493        2.5263162367        6.2829984975
 C       -14.5314135179        2.9176900036        5.5473186541
 C       -14.7992687981        4.4251266695        5.7250291102
 O       -14.2622419004        5.0829961046        6.5372141896
 C       -15.7443812024        5.0911638896        4.6739071214
 C       -14.8974236439        5.2437825706        3.4231800336
 O       -14.7748788134        4.3516602167        2.6030855210
 C       -13.9594602313        6.5724302254        3.3449148413
 C       -17.0325085782        4.2226561329        4.4740092215
 C       -16.0276082992        6.4503657686        5.3179891185
 C       -10.4300241393        1.9808908393        7.2696014777
 C        -9.4773516745        3.3908320100        5.3461672448
 C       -11.9821853128       -0.5796372402        0.3345707900
 C        -9.8377359165        0.7665378094       -0.5823628375
 C       -12.4579621066        7.5232897982       -1.4411973072
 C       -13.7722260436        6.2811998746       -3.2155012428
 C        -8.3558284981        4.8065121844       -6.4778167348
 C        -8.3042140689        2.5296880247       -5.4876978855
 C        -1.9965776959        5.8368965970       -5.5684043251
 C        -0.7231857569        3.8391994532       -6.1491405790
 H         0.0254351331        2.8985213811       -2.3660162823
 H         1.0899838976        4.1137542119       -3.0150404314
 H         0.4295729213        2.9209444210       -4.0850857027
 H        -4.0108564695        4.8422117795       -3.6577179926
 H        -3.7356630058        3.2849505347       -2.8889314661
 H        -6.0178606211        2.7990662729       -3.3256693836
 H        -5.5434465551        2.3104540172       -4.8409280659
 H        -9.0727549422        6.6374186612       -4.5378649451
 H        -7.8532103782        6.4746426845       -3.2264215170
 H        -9.8656628498        7.4631202780       -2.4786492721
 H        -9.6732191304        5.9560833600       -1.6076557892
 H       -12.7639235562        3.6257286315       -3.0542462095
 H       -13.9392718486        3.2705956373       -1.7631959401
 H       -10.9491877615        2.5559488204       -1.8221104657
 H       -12.2664261054        1.5603297740       -2.2803477968
 H        -9.0732413532       -0.1618383398        1.9044013593
 H       -10.3919844457       -0.7640445110        2.7625866197
 H        -8.6755285359        1.5246696545        3.6669571691
 H        -8.6815997119       -0.0900383996        4.2575666701
 H       -13.3175405997        2.9419344783        7.2399294249
 H       -13.1541628419        1.4287953722        6.4091737065
 H       -15.3516972183        2.3093823557        5.8821648382
 H       -14.5617337382        2.6804240776        4.4918806607
 H       -14.4850688935        7.4795756055        3.2008448032
 H       -13.3530428541        6.4116805184        2.4454952826
 H       -13.2624077505        6.7474330945        4.2120586542
 H       -17.4952102896        3.9861203330        5.4156177560
 H       -16.9491183143        3.2953529567        3.8802663232
 H       -17.9214470417        4.7584338927        3.9575173835
 H       -16.6561437957        7.0686412961        4.7224700466
 H       -15.1333834961        7.0907831725        5.3962364109
 H       -16.5864642535        6.5132225097        6.2538109086
 H       -10.3802158450        2.8511668455        7.8195676717
 H        -9.6309103596        1.3303764198        7.4694141751
 H       -11.4117994278        1.4306228051        7.5482300727
 H        -9.7954233905        3.8101307572        4.3893881562
 H        -8.5094092772        2.9119474183        5.1770362342
 H        -9.3702619395        4.1697852496        6.0463148105
 H       -11.3088698067       -1.3834794684        0.4737870431
 H       -12.4862158741       -0.7368497035       -0.6422638631
 H       -12.7234983535       -0.6768683639        1.1069987799
 H        -9.4380274891        1.8059864035       -0.4368796079
 H       -10.0021791950        0.5078131770       -1.5807119609
 H        -9.1268517673        0.0491223569       -0.2048857581
 H       -13.3762149271        7.8048020886       -0.9344186243
 H       -12.2176479107        8.3807011217       -2.0546786453
 H       -11.7153798694        7.4076308936       -0.6731838069
 H       -14.7263641512        5.9205886793       -2.7200131605
 H       -13.5434978473        5.6961088058       -4.1438643584
 H       -13.9734363236        7.2395487702       -3.6099397193
 H        -7.9322969608        4.2502518748       -7.2741888774
 H        -7.9509069803        5.8567130986       -6.6139632414
 H        -9.4778041766        4.8078831717       -6.5440769330
 H        -9.2938296452        2.3321610637       -5.8967042701
 H        -8.2107589572        1.8934139432       -4.5783648379
 H        -7.6439140802        2.1604932635       -6.2469420143
 H        -1.0872442010        6.4535766847       -5.5375147127
 H        -2.6904519559        6.3465845367       -4.9254979378
 H        -2.3941708675        5.7752163450       -6.6111501586
 H        -1.2882783931        3.8982898539       -7.0485920919
 H        -0.5425863528        2.7550798600       -5.9830954202
 H         0.2354217598        4.4025028264       -6.2728161253
 Na      -12.7512025514        3.7641103534        2.0643002318
