117

 C         0.5839759566        3.6766144535       -3.8282511678
 C        -0.8808017387        4.2026227991       -3.8063366595
 O        -1.4208522107        4.3857308428       -2.7702963806
 C        -1.6953502783        4.3313170619       -5.2091387687
 C        -2.8954380905        3.3455885535       -4.9886335898
 O        -2.9831703776        2.3325307349       -5.6899643256
 C        -4.0103518161        3.6206583965       -3.9896604291
 C        -5.3543572329        3.0474223022       -4.5236528790
 C        -6.3892317367        4.1576870742       -4.7608296906
 O        -6.0706954226        5.3038877871       -4.8828692721
 C        -7.9966462749        3.7463865256       -4.8702771057
 C        -8.5391978463        4.3741808189       -3.6207987464
 O        -8.9138574187        3.7558953192       -2.5989297749
 C        -8.6701421156        5.9042106662       -3.5788523150
 C        -9.8164348046        6.3898033319       -2.6485062715
 C       -11.2878128059        5.9519164787       -3.1599239721
 O       -11.4055979212        5.3889705519       -4.2246701676
 C       -12.5624357152        6.1524653104       -2.1284112735
 C       -12.4957097364        4.9013325462       -1.2433280373
 O       -12.4651114840        4.9554800174       -0.0284847240
 C       -12.6037382975        3.5692214312       -1.9874944551
 C       -11.7059765393        2.4253947200       -1.4546380391
 C       -12.0992965959        1.7419686924       -0.1391689979
 O       -13.1709130855        1.9722383409        0.4320766228
 C       -11.1351141332        0.5797305200        0.4343590018
 C       -10.7457967304        1.0439570874        1.8703516774
 O       -10.9908636410        2.1878362674        2.2435442365
 C        -9.8538638820        0.1544703991        2.7554032520
 C        -9.3218502198        0.8120682880        4.0630065928
 C       -10.5791560845        1.1776190090        4.9661824320
 O       -11.3337670069        0.2913008948        5.2600391181
 C       -10.7448744877        2.6881569134        5.4179889352
 C       -12.1565709821        3.0673243162        4.9740283052
 O       -12.4579844452        3.7022916196        3.9446604723
 C       -13.2772055689        2.4494758798        5.7946492812
 C       -14.6286918524        3.0601447657        5.3499265288
 C       -14.7124268108        4.5146778505        5.6144180324
 O       -14.0172931524        5.0218547696        6.5188181817
 C       -15.7549157181        5.4418292585        4.7440918730
 C       -14.9526661953        5.5399874605        3.4641266765
 O       -15.2406572298        4.7071529844        2.5603771109
 C       -13.8019366866        6.4583331231        3.5189888157
 C       -17.1465769222        4.7912434192        4.7016373150
 C       -15.8413328063        6.7467942745        5.5401079963
 C       -10.6609870294        2.6909502189        6.9527684936
 C        -9.7244003831        3.6565715870        4.7676641113
 C       -12.0344834627       -0.7004094871        0.4861620670
 C        -9.8426037958        0.3520953186       -0.4276632479
 C       -12.4478624894        7.5349049357       -1.3987434420
 C       -13.8644265751        6.1256887634       -2.9949369668
 C        -8.5465949018        4.2474458702       -6.2595303773
 C        -8.1904318796        2.2164829261       -4.8079243866
 C        -2.2185216412        5.7533798344       -5.2285027741
 C        -0.9183977753        3.8049434756       -6.4046074834
 H         0.9208198583        3.3718907100       -4.7558948679
 H         0.8541965802        3.0123624228       -3.0147323172
 H         1.1079111656        4.6368017586       -3.6516239279
 H        -3.9914799427        4.7075363332       -3.7211202733
 H        -3.6620776164        3.0732710655       -3.0867994263
 H        -5.8284665300        2.3269167062       -3.8171836777
 H        -5.2336862569        2.5873543842       -5.5017638353
 H        -8.8343747361        6.2545240652       -4.5851553870
 H        -7.7663606224        6.4557193498       -3.2349035701
 H        -9.8497032076        7.4783092241       -2.4923747980
 H        -9.6849686640        5.9546053677       -1.6891857401
 H       -12.2894745368        3.6787732217       -3.0433155488
 H       -13.6307954810        3.2005579942       -1.9327386925
 H       -10.6623415954        2.7616130887       -1.5724912300
 H       -11.8689746935        1.5681327127       -2.1390360204
 H        -8.9633523724       -0.2411387611        2.2424009305
 H       -10.4550430582       -0.6614563596        3.1101290605
 H        -8.7863412975        1.7402158444        3.8391569835
 H        -8.7479771017        0.0924250846        4.6327148034
 H       -13.0987361852        2.5450794150        6.8638077630
 H       -13.3244922341        1.4128575483        5.5362352629
 H       -15.4920039219        2.6482487166        5.8488412535
 H       -14.8243084867        2.8073721067        4.3136987631
 H       -14.2932526412        7.4720885231        3.6149019682
 H       -13.1136842183        6.4999804334        2.6824416091
 H       -13.2408532371        6.2559772285        4.4138737240
 H       -17.5776716648        4.8636112740        5.7571357658
 H       -17.1211931069        3.6894255782        4.5149927583
 H       -17.8285086123        5.1649914276        3.9588058220
 H       -16.4934430261        7.4625602618        4.9449145256
 H       -15.0071201637        7.3577052092        5.7981848853
 H       -16.3630649697        6.6575853019        6.4927941911
 H       -10.8582045179        3.7238883695        7.2585917321
 H        -9.6180562162        2.5583422299        7.2411779808
 H       -11.2307140257        2.0137307578        7.4305329400
 H        -9.9312572940        3.8534989056        3.7320946583
 H        -8.7227818459        3.2852669579        4.9160554474
 H        -9.7106261320        4.5683234063        5.3488763592
 H       -11.4774003698       -1.6016957636        0.8020455915
 H       -12.5521638339       -0.9763990614       -0.4107217079
 H       -12.8526243867       -0.4521034351        1.1336416035
 H        -9.2367200280        1.2145953278       -0.4700019222
 H       -10.1523513782        0.2472213478       -1.4850887758
 H        -9.3280325437       -0.5310411860       -0.0739897571
 H       -13.3937039648        7.7727491786       -1.0025006149
 H       -12.1983226799        8.3293572655       -2.0459714368
 H       -11.7291216131        7.4667765498       -0.6004670387
 H       -14.7447854933        6.3980331687       -2.4864776485
 H       -14.0851959306        5.2245456540       -3.5785621273
 H       -13.6287917230        6.9150952052       -3.7744174459
 H        -8.3828735820        3.5270509984       -7.1395599564
 H        -8.2300853159        5.2768770377       -6.4171958980
 H        -9.6245795015        4.2868985015       -6.1941237320
 H        -9.2431297104        1.9500052568       -5.0235379612
 H        -7.9795450253        1.8420126242       -3.8327613528
 H        -7.6058242363        1.6712739395       -5.5613438417
 H        -1.4644392345        6.4475101820       -5.7003024329
 H        -2.4166094495        6.1156594439       -4.1789257223
 H        -3.1378039491        5.8195522124       -5.8133169269
 H        -1.6275678076        3.8537700715       -7.2802841488
 H        -0.6410305873        2.7367390969       -6.3014826353
 H        -0.0881913578        4.4162122978       -6.6935207832
 Na      -13.2060425709        3.8662929135        1.8053920131
