117

 C         0.6658269259        3.7115259907       -4.0204253874
 C        -0.7768459397        4.1500014154       -3.8489395434
 O        -1.3577683618        4.2777025294       -2.7767198722
 C        -1.6988043462        4.2739114134       -5.1515280785
 C        -2.9067031037        3.3086831660       -4.9709629006
 O        -2.9544730750        2.3778240738       -5.7365344349
 C        -4.0077296447        3.5976327577       -3.9198683932
 C        -5.3621269283        2.9892489393       -4.4154670584
 C        -6.4515496814        4.0411873850       -4.7361861545
 O        -6.2522587726        5.2392742276       -4.7951998724
 C        -7.9552089463        3.6456216647       -4.7819574559
 C        -8.6550182395        4.3570900572       -3.6013862357
 O        -8.7821093920        3.7415588987       -2.5858531471
 C        -8.8809356665        5.8995288123       -3.6680683641
 C        -9.7866196566        6.3906314309       -2.5539161447
 C       -11.2206886499        5.9717355663       -3.0587299083
 O       -11.2737996980        5.3991269346       -4.1213267264
 C       -12.4960434254        6.2019623059       -2.2428444981
 C       -12.5795348806        4.8926004177       -1.2898101653
 O       -12.5275153501        5.1096934099       -0.0914171411
 C       -12.5801398368        3.5287640721       -1.9692614117
 C       -11.6412281342        2.4056881746       -1.4189208632
 C       -12.1059728113        1.6681114135       -0.1076511250
 O       -13.0840510588        1.9327969636        0.5440986204
 C       -11.2023644548        0.5694442409        0.4349551803
 C       -10.7045492929        1.0561765475        1.8837282766
 O       -11.0434001943        2.1836380456        2.2568931642
 C        -9.8797427213        0.1063160435        2.7348666248
 C        -9.4334808673        0.8824868804        3.9163975071
 C       -10.6039182936        1.3092337035        4.8664221193
 O       -11.3291403824        0.4087931219        5.2560146272
 C       -10.8078888438        2.8085762497        5.3762886307
 C       -12.2564969184        3.1069426743        4.8845862954
 O       -12.3843105322        3.7226209375        3.8260808901
 C       -13.4311002066        2.5414728316        5.7030578545
 C       -14.8114298186        2.9862286422        5.2601045912
 C       -14.8110033113        4.4917504881        5.6933942175
 O       -13.9697880353        4.9959257616        6.3827989627
 C       -15.8074624920        5.4630720040        4.9132963812
 C       -14.9030784260        5.5513501234        3.5471727222
 O       -15.0021793405        4.7100448526        2.6614135262
 C       -13.8157303870        6.5295511326        3.4691930322
 C       -17.1850619077        4.9349317053        4.6831785754
 C       -15.8704046259        6.8353321643        5.6529352969
 C       -10.5909664207        2.8406899927        6.8824604365
 C        -9.8412112555        3.7951486475        4.6937212617
 C       -11.9427883537       -0.8013953521        0.5010767017
 C        -9.9988767507        0.2646874124       -0.4305169697
 C       -12.4047008844        7.3821731856       -1.3183571506
 C       -13.8346977721        6.1483293252       -3.0000117138
 C        -8.5254496144        4.1985437682       -6.0959155599
 C        -8.2768175697        2.1115769905       -4.7093561715
 C        -2.1794032925        5.7210221109       -5.3344550241
 C        -0.8568077091        3.9198798494       -6.4001038232
 H         0.9879580449        3.8165923636       -5.0466725689
 H         0.8075532957        2.6715286609       -3.6324306844
 H         1.3053817252        4.3572899854       -3.4499631941
 H        -4.1028974298        4.6871896511       -3.8865927552
 H        -3.6605651792        3.2845411454       -2.9386296363
 H        -5.8587614303        2.3094097023       -3.7000776500
 H        -5.2655097331        2.5461636928       -5.4215860016
 H        -9.2344803958        6.2206120843       -4.6499293212
 H        -7.9259260344        6.4797235890       -3.5349927534
 H        -9.8181650906        7.5012317492       -2.3910719266
 H        -9.5127445963        5.9299436217       -1.6480260428
 H       -12.1282357048        3.7597303756       -2.9943074516
 H       -13.5961451086        3.0974502148       -2.1038095418
 H       -10.7803555558        2.9809590259       -1.1498608281
 H       -11.3552024472        1.7138453487       -2.1847358043
 H        -9.0103395325       -0.2741061352        2.2910135610
 H       -10.5819844691       -0.7134247275        3.0906741626
 H        -9.0183855938        1.7933237737        3.5685234205
 H        -8.7407830856        0.2528299231        4.5652032491
 H       -13.3418642920        2.8583888747        6.7803865457
 H       -13.3999727001        1.4711838437        5.6590007988
 H       -15.5783739401        2.4025160767        5.7403077284
 H       -14.9937317434        2.8888307073        4.2040635105
 H       -14.1121447491        7.5567432388        3.7044838189
 H       -13.2694868006        6.5196241657        2.5392127972
 H       -13.1370871704        6.1631278982        4.2130603337
 H       -17.8566268780        4.8714535904        5.5753537795
 H       -17.1839686719        3.9007894239        4.2251777311
 H       -17.6149774386        5.5713286339        3.9262777992
 H       -16.4400583960        7.6400523991        5.1307816091
 H       -14.8907522043        7.3413083298        5.8239074449
 H       -16.2492167344        6.8207990488        6.6939238274
 H       -10.7944791187        3.8242792744        7.2573806428
 H        -9.5734632958        2.6494458075        7.1327027197
 H       -11.2585996996        2.0270073870        7.4144108361
 H        -9.9015227571        3.8318187397        3.6416114002
 H        -8.8747709327        3.5133650432        5.0250749950
 H        -9.9923055513        4.8209661507        5.1186042806
 H       -11.2312658818       -1.4843950843        0.9188328273
 H       -12.2293368516       -1.1849740951       -0.4041596286
 H       -12.8677218837       -0.7479355252        1.0827157201
 H        -9.2514459820        1.0107565873       -0.4265116065
 H       -10.2701064614        0.2521327173       -1.5178673805
 H        -9.5817544743       -0.6730311820       -0.0664731931
 H       -13.4094422257        7.5936260716       -0.9113437348
 H       -12.0679444225        8.2929224336       -1.8385154521
 H       -11.6662333781        7.1559639042       -0.4709259123
 H       -14.7041908660        6.5716496122       -2.3935885354
 H       -14.1385166283        5.1217366361       -3.2431121736
 H       -13.8008884964        6.6977682790       -3.9691460838
 H        -8.2044904272        3.7407756823       -7.0466302072
 H        -8.3820441251        5.2723930867       -6.0308712959
 H        -9.6407389091        4.0587802924       -6.0924033191
 H        -9.2814515298        1.9576549538       -5.1022640319
 H        -8.2944246017        1.7536645010       -3.6805623809
 H        -7.5938085336        1.4501960578       -5.2950565478
 H        -1.4209637620        6.3859670066       -5.6874895452
 H        -2.7156719693        6.1729130370       -4.4795578212
 H        -2.8852368712        5.6043680966       -6.1621929428
 H        -1.4367963821        4.0611281325       -7.3431566234
 H        -0.4578462200        2.9340201112       -6.4105453749
 H        -0.0361340997        4.6638555118       -6.4852368977
 Na      -13.0731284893        3.7375444456        1.7421950734
