117

 C         0.8463290010        3.7862332333       -4.1327825778
 C        -0.7564735091        4.0733950742       -3.9449980910
 O        -1.1893813241        4.1326646772       -2.8411715137
 C        -1.6737875234        4.2763899222       -5.2644084921
 C        -2.9611203197        3.2938388206       -5.1443326315
 O        -3.0270717979        2.2946365443       -5.8527800111
 C        -4.0373938633        3.6366008377       -4.0837613744
 C        -5.3392159942        2.8604696603       -4.1814018847
 C        -6.4837813873        3.9396421868       -4.5306252483
 O        -6.1933619362        5.0961734162       -4.6668832132
 C        -7.9643772276        3.5336409139       -4.6295598593
 C        -8.6534361264        4.2910791939       -3.4397731374
 O        -8.8737373835        3.7847447540       -2.3113068993
 C        -8.6706684602        5.8087402964       -3.5178052112
 C        -9.8394019920        6.3615169718       -2.6527959362
 C       -11.2293916408        5.8125996816       -3.1055488388
 O       -11.4977953741        5.2638370561       -4.1548620850
 C       -12.4678015392        6.1439078756       -2.1371475005
 C       -12.6556197980        4.8629911964       -1.1478593536
 O       -12.6407247623        5.0281469755        0.0669495651
 C       -12.7123396729        3.4489521508       -1.7897023733
 C       -11.5374291434        2.5849250039       -1.2054760924
 C       -12.0779651401        1.4967567206       -0.2634977822
 O       -13.2292438980        1.6070383348        0.2001574975
 C       -11.1824051104        0.4021221505        0.4209728100
 C       -10.7095269313        0.9596490870        1.7614666146
 O       -11.1394353697        2.0614783325        2.0393046119
 C        -9.8940909306        0.0370614279        2.7876188973
 C        -9.3135825191        1.0284470216        3.9641407641
 C       -10.5358719960        1.4622422480        4.7919790041
 O       -11.2727881823        0.6051390897        5.1895224844
 C       -10.8685193839        2.9641388683        5.2409921958
 C       -12.3736266212        3.2053891850        4.9000816025
 O       -12.6276363073        3.9497027329        3.9465870611
 C       -13.4821784777        2.3399647488        5.4913134350
 C       -14.8680687349        3.0482595475        5.3057824634
 C       -14.8196557627        4.5911059589        5.5842794279
 O       -14.0179934421        5.0135169191        6.4440714241
 C       -15.7015498873        5.6651509377        4.8821303042
 C       -14.8911263225        5.7264650786        3.5788740440
 O       -14.7896646068        4.6913059162        2.9164415295
 C       -13.8805008838        6.8078807676        3.4400986245
 C       -17.1589940663        5.1863910069        4.4354862778
 C       -15.8635726568        6.9714083981        5.7555956137
 C       -10.6771671207        3.0242309890        6.7856611693
 C        -9.9839451130        4.0880101756        4.5532506253
 C       -12.0286148382       -0.8491080632        0.6396969069
 C        -9.9985250130        0.1602713964       -0.4349297078
 C       -12.3196405784        7.4214013793       -1.2510678088
 C       -13.6061073031        6.3320727346       -3.1408143811
 C        -8.5140745141        3.9597937193       -6.0288998832
 C        -8.2931177361        2.0374244225       -4.5345235589
 C        -2.0961266017        5.7544248244       -5.2621544442
 C        -0.9016227780        3.9460724069       -6.5617216702
 H         1.4003630262        4.7290768572       -4.1774197883
 H         1.0478057377        3.1639267099       -4.9983726094
 H         1.1984873057        3.2014854155       -3.2268929887
 H        -4.3057480825        4.6901877644       -4.1439860695
 H        -3.5579004833        3.4778236132       -3.1125120621
 H        -5.7217305787        2.5002786151       -3.2209637775
 H        -5.4345567462        2.1745718036       -5.0230984703
 H        -8.6649916232        6.2228095900       -4.5250833223
 H        -7.7632248732        6.1905119454       -3.0740299650
 H        -9.9428126874        7.4383157178       -2.6812576141
 H        -9.7473715164        6.0940148517       -1.5396786615
 H       -12.7177788776        3.4261354886       -2.8422737112
 H       -13.5649595725        2.8968185264       -1.4078431525
 H       -10.7891711318        3.1909784093       -0.6512971565
 H       -11.0630969029        2.0373290190       -2.0421990462
 H        -8.9766521221       -0.4320347458        2.2942484255
 H       -10.5620951281       -0.6679483947        3.2081565348
 H        -8.7967349501        1.9231618400        3.5274312680
 H        -8.7488914625        0.5157524715        4.6790016215
 H       -13.3985859907        2.1283425243        6.5374700078
 H       -13.4122501093        1.3732485499        4.9090091910
 H       -15.5834968499        2.6000277815        6.0535469931
 H       -15.3546295749        2.9494837004        4.2876810590
 H       -14.2795699112        7.7847015399        3.7211683747
 H       -13.4805215098        6.8591477108        2.4326566450
 H       -13.0151625958        6.5350272681        4.0665563607
 H       -17.6856120656        4.5864970507        5.1642029343
 H       -17.0388601153        4.5425149704        3.5770985009
 H       -17.8302221839        6.0327253964        4.1577403245
 H       -16.1380541026        7.7979328286        5.0828197057
 H       -15.0505296111        7.3576953684        6.3189790151
 H       -16.5992127229        6.8581193256        6.5342267287
 H       -11.0650863931        3.9858415606        7.2362736747
 H        -9.5625463073        2.9651916909        7.0133353878
 H       -11.1110086354        2.2294158614        7.2224671021
 H        -9.9083244934        3.8448292350        3.4564599486
 H        -8.9653280519        4.2127087780        5.0011836766
 H       -10.5152862291        5.0080786723        4.5515557643
 H       -11.5475562771       -1.6120685983        1.2915645200
 H       -12.1450745613       -1.3036038640       -0.3944431184
 H       -13.0236626944       -0.6240406139        1.0034324122
 H        -9.4720267118        1.0723526450       -0.8035905677
 H       -10.3066054005       -0.3025700606       -1.3535839759
 H        -9.2643758735       -0.4307771124        0.1470304675
 H       -13.0745476125        7.4060856243       -0.4320934493
 H       -12.5011324418        8.3385123128       -1.8544599749
 H       -11.3181959837        7.4958399378       -0.8196638596
 H       -14.4729210018        6.6311058528       -2.6581749636
 H       -13.8795346325        5.4012454786       -3.6458595191
 H       -13.3589722409        7.1465040571       -3.8380859420
 H        -8.1089570949        3.2391217292       -6.7616329462
 H        -8.0974258613        4.9330459311       -6.2566654138
 H        -9.5456658424        3.9868893302       -6.1933843059
 H        -9.3516488212        1.7898628965       -4.7725712467
 H        -8.1083518438        1.7242212613       -3.4983789170
 H        -7.5864135237        1.4558356443       -5.0975958667
 H        -1.1994678623        6.3372780371       -5.0668440629
 H        -2.7219639662        5.8507864901       -4.4163627640
 H        -2.5737458959        6.1546774674       -6.1095853870
 H        -1.5731615301        3.9705103118       -7.3895581765
 H        -0.4834570549        2.9214261825       -6.4693773258
 H        -0.0906683362        4.5737509222       -6.8052677427
 Na      -12.8674321080        3.6479833530        1.6675338072
