117

 C         0.7266420989        3.8388089907       -4.2625837334
 C        -0.7534235359        3.9725982536       -4.0612858100
 O        -1.2574245063        4.0941225327       -2.9728887596
 C        -1.6314201292        4.1822646557       -5.2118477047
 C        -2.9156817702        3.2795542626       -5.1229253982
 O        -3.0336067096        2.3599093313       -5.9183796078
 C        -3.8980650455        3.6415687198       -4.0581158215
 C        -5.2846189752        2.9004398324       -4.1537639027
 C        -6.4303983319        3.8786895425       -4.4732290056
 O        -6.1747070506        5.0545080997       -4.6538618095
 C        -7.8797742911        3.4346081677       -4.5033031227
 C        -8.5268178003        4.2687574970       -3.3509525630
 O        -8.9750040750        3.6462312974       -2.4048900256
 C        -8.6358840719        5.8343350457       -3.4473838854
 C        -9.8889384836        6.3797192686       -2.7189515133
 C       -11.2627154481        5.7793809528       -3.0874481827
 O       -11.3904273262        5.1705123418       -4.1153157674
 C       -12.5124483642        6.1126885843       -2.1392822660
 C       -12.6607507592        4.9275247647       -1.1671302188
 O       -12.6420397903        5.1613883168        0.0369537608
 C       -12.7791741760        3.5174362033       -1.7101275747
 C       -11.6072323118        2.5942564756       -1.1697183929
 C       -12.1376520732        1.4499519787       -0.2550038777
 O       -13.3456692168        1.3635216315       -0.0797912811
 C       -11.1609653777        0.3268347055        0.3547026407
 C       -10.7611267724        0.9725275584        1.8405557748
 O       -11.0574305330        2.1235994758        2.1984730928
 C        -9.8475080850        0.2494564761        2.7694303102
 C        -9.3317543470        1.1480503175        3.8933835561
 C       -10.5372966337        1.5166360004        4.8197672934
 O       -11.2597304298        0.5986709357        5.1680083988
 C       -10.9184790865        2.9700378959        5.1823838568
 C       -12.3903495973        3.1722288025        4.7821576377
 O       -12.6876960149        4.1301808766        4.0460242653
 C       -13.5242206304        2.3810440987        5.4332681050
 C       -14.8629552743        3.1103597704        5.3617778531
 C       -14.8096526162        4.6017074295        5.7814983755
 O       -14.0169268241        5.0558161755        6.5778284786
 C       -15.6477691165        5.6483375266        4.8483314787
 C       -14.7429882299        5.7583770174        3.5560416567
 O       -14.7934866349        4.8285385665        2.7169230818
 C       -13.9011169783        6.9793197028        3.3852753521
 C       -17.1287514212        5.2214978760        4.3836302491
 C       -15.8180834272        6.8942706001        5.6391665524
 C       -10.7253555360        3.1355593722        6.7544812038
 C       -10.0537646489        4.0614094234        4.5144903942
 C       -12.0744378218       -0.9252701050        0.5926924509
 C        -9.8735169857       -0.0015223683       -0.5027655274
 C       -12.2674584783        7.3786767946       -1.3195304901
 C       -13.7106947179        6.3587512560       -3.0169769374
 C        -8.5014161610        3.8981187740       -5.8832789485
 C        -8.2505507806        1.9272769860       -4.3132788719
 C        -1.9824576449        5.7132292942       -5.1429100123
 C        -0.9900643539        3.8803778072       -6.5943450616
 H         1.0491760072        4.6730306713       -3.7179959139
 H         1.0887163022        3.9058846588       -5.3054697167
 H         1.1557972354        2.9455330869       -3.7908694458
 H        -4.0765774519        4.7463539832       -4.1843875261
 H        -3.3794179312        3.5122498521       -3.0740617153
 H        -5.7096985958        2.4559152813       -3.2472970728
 H        -5.3171669938        2.2766946518       -5.0182880693
 H        -8.6249712892        6.2216386696       -4.4422807266
 H        -7.7935046856        6.3771579968       -2.9702304651
 H        -9.9641569369        7.4822137463       -2.9577205883
 H        -9.8141326696        6.3260791173       -1.6567923178
 H       -12.6376455905        3.5330662200       -2.7875941259
 H       -13.6907799565        3.0159172234       -1.5255895604
 H       -10.9137692609        3.2069169165       -0.5330983662
 H       -11.0530726693        2.1939066719       -2.0587434370
 H        -8.9776682078       -0.1966040756        2.2870148023
 H       -10.4623419873       -0.4987923263        3.2682367257
 H        -8.7663853322        1.9832782614        3.5344834577
 H        -8.7450354914        0.4967701255        4.5445252050
 H       -13.3335267800        2.0895178555        6.4825778760
 H       -13.6306825511        1.4901179210        4.8595194719
 H       -15.6177720205        2.5882935135        5.9805881717
 H       -15.2381436288        3.1327097540        4.3227307552
 H       -14.6437231872        7.8342749179        3.5612421068
 H       -13.4816129993        7.1150815855        2.3812080757
 H       -13.0735550438        7.0456096428        4.0721588294
 H       -17.4860720562        4.6006179304        5.2555634364
 H       -17.0744002513        4.5022103683        3.5292128307
 H       -17.8047178402        6.0034531138        4.2695738250
 H       -15.9018234541        7.7737296752        4.9833597768
 H       -14.9651759228        7.1157697977        6.2335828068
 H       -16.5933818509        6.8836779105        6.3741548459
 H       -11.1810945708        4.0178717294        7.1225412487
 H        -9.6991223642        3.1271734442        6.9924262896
 H       -11.1810663334        2.2512042954        7.2856595023
 H       -10.1048490783        3.9063760581        3.4423648229
 H        -9.0114744992        4.0314658324        4.8477927090
 H       -10.5261642087        5.0695463895        4.6346550390
 H       -11.5572077889       -1.6993352095        1.2722187565
 H       -12.3635326333       -1.4136470193       -0.3266250754
 H       -13.0081664831       -0.5842813605        1.1558782449
 H        -9.2786394273        0.7688539021       -0.8558600527
 H       -10.2454656693       -0.5386982744       -1.4306677202
 H        -9.2382882883       -0.6500314015        0.0946063803
 H       -12.9233173264        7.3134178499       -0.5300828591
 H       -12.4203656971        8.2508914792       -1.8444737919
 H       -11.2838939589        7.3895792332       -0.8860173228
 H       -14.6288813289        6.4835381061       -2.5046171793
 H       -13.8583244281        5.6000187399       -3.7122920608
 H       -13.5110415490        7.3287679531       -3.4725445479
 H        -8.2667743836        3.1418282610       -6.6975751710
 H        -8.0513523921        4.8129694093       -6.1804593987
 H        -9.5611746977        4.0462149002       -5.9065828223
 H        -9.3212795746        1.7235481056       -4.3688047096
 H        -7.8557345360        1.4993350873       -3.4220658153
 H        -7.6600798200        1.4159770018       -5.0864182033
 H        -1.0155371369        6.2271734673       -5.1827445011
 H        -2.4299073763        5.9052176245       -4.1377172110
 H        -2.6196496406        6.1159546647       -5.9070167601
 H        -1.7096098753        4.0530288653       -7.4317134135
 H        -0.6018378795        2.8842775271       -6.6251918923
 H        -0.1340245383        4.4805953379       -6.8143487571
 Na      -12.9126919831        3.6126424219        1.7759557610
