117

 C         0.8677346626        3.7933083202       -4.5276416325
 C        -0.5866062442        3.8071778960       -4.2184634458
 O        -0.9568984303        3.3861963421       -3.1277741755
 C        -1.5826049723        4.1977082827       -5.3954285200
 C        -2.9559219587        3.4074413501       -5.2358071376
 O        -3.3643258649        2.6105713807       -6.0334369615
 C        -3.6642445427        3.6418203232       -3.9267598905
 C        -5.0725274182        2.9440461964       -3.9092394171
 C        -6.3190328506        3.7812401735       -4.3094385167
 O        -6.2323413688        4.9575462905       -4.5775248061
 C        -7.8154425405        3.1693909754       -4.1910820961
 C        -8.5967236282        4.1342498187       -3.1995264883
 O        -9.1442881904        3.6148280504       -2.2724187207
 C        -8.7101343039        5.6384779539       -3.4638592714
 C        -9.8258970735        6.2126742914       -2.6020860007
 C       -11.1667215986        5.7198527363       -2.9071062703
 O       -11.3098824248        4.9387454990       -3.8148067885
 C       -12.4373122954        6.0377323189       -2.0196157571
 C       -12.5509280292        4.9409402624       -0.9258107178
 O       -12.3450961322        5.2230474380        0.2534539996
 C       -12.7800841393        3.5593796717       -1.3888886791
 C       -11.7239628365        2.5362600767       -0.9097621963
 C       -12.4170692406        1.2722249088       -0.3774813794
 O       -13.5255682792        0.9283475449       -0.5769917593
 C       -11.3921348903        0.5001552968        0.4020732331
 C       -10.9009413406        1.2991502246        1.7089436862
 O       -11.6513033312        2.1484002875        2.1482701385
 C        -9.7110203193        0.6936135908        2.4675810494
 C        -9.3419094878        1.3204796605        3.7910631216
 C       -10.5037203560        1.6113717703        4.6553114111
 O       -11.2673344193        0.7628643578        5.0906024233
 C       -10.7188318315        3.0890328776        5.2309745359
 C       -12.2497200289        3.3573943965        4.9186307210
 O       -12.4841332182        4.1588105500        4.0115941904
 C       -13.4519422458        2.6639317370        5.6429894264
 C       -14.7795893578        3.2308562257        5.1009989271
 C       -14.8581625739        4.6870173333        5.6541445460
 O       -14.4158425304        5.0253073671        6.6717955953
 C       -15.6259551488        5.7991615237        4.5724660852
 C       -14.7908945907        5.9798069107        3.2989200698
 O       -15.0212162138        5.1997614805        2.3527992593
 C       -13.8163982631        7.1071308150        3.0706034451
 C       -17.0234791682        5.2835459407        4.2586081222
 C       -15.7103771957        7.0553221364        5.5116317734
 C       -10.4888418685        3.0312598237        6.7368781562
 C        -9.9059792325        4.2024368413        4.5545286915
 C       -11.9576741783       -0.8837535740        0.8597565577
 C       -10.1797882731        0.1151827926       -0.4694610916
 C       -12.3614386182        7.4653026413       -1.3620345092
 C       -13.6799916123        5.9567488914       -3.0394503199
 C        -8.3942395419        3.2423514753       -5.5960703665
 C        -7.8120178957        1.7583404715       -3.6174719187
 C        -2.0819317145        5.7034900566       -5.3536868765
 C        -0.9354335852        3.7744691887       -6.7646801645
 H         1.3253683785        2.7959288223       -4.4658243570
 H         1.3661673318        4.4510433056       -3.7497934716
 H         1.0021324774        4.2209101971       -5.5158051538
 H        -3.6105482352        4.6811672361       -3.5946746857
 H        -3.1609005001        3.0668435029       -3.1442401440
 H        -5.4509298996        2.6512505719       -2.9130723226
 H        -5.0588113610        2.1288901997       -4.6216425975
 H        -8.7731989344        5.8898502244       -4.5014159898
 H        -7.7950516586        6.1228432285       -3.0880503194
 H        -9.9244164475        7.3586054977       -2.5728812661
 H        -9.5792290994        5.8822487257       -1.6076501638
 H       -12.7282926116        3.5383745236       -2.4789473790
 H       -13.7641037613        3.2169750123       -1.1871285586
 H       -11.1013164827        3.0003473454       -0.1061041876
 H       -11.0321699080        2.2605095957       -1.7412613553
 H        -8.8373065099        0.7675398237        1.8141074456
 H        -9.9635541749       -0.3727978780        2.6793977802
 H        -8.7870243601        2.1970667844        3.6688739694
 H        -8.6402935993        0.6664076741        4.3486510066
 H       -13.3934027653        2.8444514305        6.7602707004
 H       -13.4544211120        1.6062106887        5.4651844115
 H       -15.6374448940        2.7005822453        5.5790880272
 H       -14.7487562405        3.2694751438        3.9944331340
 H       -14.4060323604        7.8370126860        2.4593382048
 H       -13.0521886391        6.7972719768        2.3655477641
 H       -13.4677286644        7.5965141792        3.9696030836
 H       -17.4319639966        4.9934941848        5.2397554200
 H       -16.9649423493        4.3764796346        3.6323031839
 H       -17.6216233486        6.0611975129        3.8796431462
 H       -16.2938736469        7.8150236989        4.9746265523
 H       -14.7151864019        7.5088248984        5.6119856364
 H       -16.2260097911        6.8965635033        6.4648109230
 H       -10.8622292475        3.8853414533        7.2675815238
 H        -9.4515666680        2.8978798088        6.9150373486
 H       -11.0240658440        2.0840415705        7.2237155997
 H        -9.7663841688        4.1435759895        3.4937962422
 H        -8.9204224251        4.2761739922        5.0018031801
 H       -10.4946112287        5.1573032372        4.7608652115
 H       -11.1686611982       -1.4687010452        1.3499865963
 H       -12.3690342778       -1.4098267289        0.0271712437
 H       -12.6161483796       -0.6702407347        1.7366022989
 H        -9.4838006496        0.9015645209       -0.5948431445
 H       -10.4584681024       -0.3721543233       -1.4648586594
 H        -9.6056892125       -0.7003481627       -0.0020747514
 H       -13.3700799052        7.8508275502       -1.1134760937
 H       -11.7903480351        8.1450323117       -2.0389268958
 H       -11.7861139636        7.4009759284       -0.3879268856
 H       -14.6971796308        6.2322091411       -2.6461391938
 H       -13.7203844668        5.0023883769       -3.5227981414
 H       -13.4709285746        6.7283696889       -3.7779904606
 H        -7.8484497277        2.6480631472       -6.3241781069
 H        -8.4258600987        4.1919462457       -6.0402873787
 H        -9.4272404674        2.9239451624       -5.5433476676
 H        -8.7774151122        1.3514749029       -3.9238822697
 H        -7.7990057055        1.7061016177       -2.5387371518
 H        -6.9394095666        1.1616346367       -3.9904166913
 H        -1.2964537052        6.3647744651       -5.5499897393
 H        -2.5791318426        5.9578469259       -4.4350079824
 H        -2.7720207781        5.8507481087       -6.1354575171
 H        -1.7934151447        3.8673065803       -7.4644406476
 H        -0.6535913102        2.7653809981       -6.8014286507
 H        -0.0874946483        4.2857567501       -7.1846277396
 Na      -13.3747269174        3.8878785971        1.7699031690
