117

 C         0.9717744990        3.8872050900       -4.5703385489
 C        -0.4978137308        3.7290422025       -4.2969422174
 O        -0.9247641243        3.3465300014       -3.1990180298
 C        -1.6726405915        4.1034392611       -5.4752893780
 C        -3.0098979176        3.3716062322       -5.2392710273
 O        -3.4438795912        2.6461133751       -6.1081397438
 C        -3.7498529299        3.6608560182       -3.8954684187
 C        -5.0607589673        2.8560434770       -3.7988094841
 C        -6.2806186515        3.7961847167       -4.1775978500
 O        -6.1785697355        4.9392178555       -4.5528996240
 C        -7.7580447822        3.0731275063       -4.1563051133
 C        -8.6084363844        4.0316766500       -3.2153965284
 O        -9.0672414909        3.6097045160       -2.1839210436
 C        -8.6913537459        5.5674884828       -3.4081561392
 C        -9.7132670797        6.2236425815       -2.4913203247
 C       -11.1224372984        5.6574508662       -2.9279514432
 O       -11.3005952489        4.8780816650       -3.8338157514
 C       -12.4347095742        6.0932442723       -2.0793042769
 C       -12.5476424217        5.0275006677       -1.0043776030
 O       -12.2334811459        5.2804305806        0.1597587215
 C       -13.0401496717        3.5994042824       -1.3249883422
 C       -11.8945113877        2.6321004323       -0.9435685921
 C       -12.3677487069        1.3176932157       -0.3450276044
 O       -13.4848855352        0.9380944315       -0.6455112983
 C       -11.3828684249        0.3842304190        0.5263546059
 C       -11.0454920458        1.1970858394        1.7878416334
 O       -11.6573455051        2.1345247119        2.2552618845
 C        -9.7410753261        0.7717443493        2.4006079994
 C        -9.2639766965        1.4448096986        3.7067703596
 C       -10.5003680423        1.7095727588        4.6748850771
 O       -11.2035069181        0.7679518828        4.9424368189
 C       -10.7350512432        3.1572393671        5.3405963322
 C       -12.2305025447        3.4421075743        4.8824673360
 O       -12.3342914641        4.1157983916        3.8976548694
 C       -13.3718433097        2.7756819476        5.5914599903
 C       -14.7766018935        3.2822583707        5.0748402186
 C       -14.9566500283        4.8041861931        5.4710662800
 O       -14.4975463824        5.0737894128        6.5630338202
 C       -15.7067299208        5.8412200759        4.5861297202
 C       -14.9011966898        5.9759156174        3.2651658422
 O       -15.1406822873        5.1051101060        2.4301681052
 C       -13.8463169853        7.0567511276        3.1331615130
 C       -17.0985537046        5.3624608317        4.1583645974
 C       -15.7112804623        7.2171210550        5.4742247431
 C       -10.3675033578        2.9710059611        6.8284278793
 C        -9.8801077843        4.2159337267        4.6262102288
 C       -12.0721642189       -0.9393755707        0.8851660541
 C       -10.1278589937        0.0142598375       -0.4449287646
 C       -12.4347351143        7.4110131200       -1.3418539443
 C       -13.6808135578        5.9945512190       -2.9903141031
 C        -8.3174004977        3.1016663673       -5.5985461942
 C        -7.8062171161        1.6988252271       -3.4457441804
 C        -1.8215501927        5.6361204143       -5.3453692707
 C        -1.1200435322        3.8083707345       -6.8187649381
 H         1.2988347248        2.9618407005       -5.1609030472
 H         1.4566448373        3.8362136817       -3.6045614334
 H         1.2144354039        4.7492587107       -5.1319661404
 H        -4.0346857476        4.7355482821       -3.7172042504
 H        -3.1121165715        3.3675774808       -3.0182694135
 H        -5.3752400466        2.6265738057       -2.7971333605
 H        -5.1687115548        2.0208822022       -4.4684218708
 H        -9.0663313395        5.7435315267       -4.4251803099
 H        -7.7225327219        6.0627018023       -3.3563186054
 H        -9.7848689318        7.3407898647       -2.5932456838
 H        -9.4919481406        5.9834148654       -1.4768261163
 H       -13.2560019020        3.4066045432       -2.3713552198
 H       -13.9448463587        3.3734050581       -0.8389030598
 H       -11.3247573852        3.2271325180       -0.1711490069
 H       -11.1830170284        2.4154312871       -1.7852798630
 H        -8.9879572376        0.8721530026        1.6767032581
 H        -9.8822171369       -0.3203962605        2.6351839894
 H        -8.6869081457        2.3214817600        3.4811373088
 H        -8.4960825408        0.8263093877        4.1874274280
 H       -13.3423032868        2.9344722443        6.6837989462
 H       -13.2865864918        1.7208033322        5.4300867340
 H       -15.4694006220        2.7266470842        5.6960801451
 H       -14.8824220958        3.1922461891        4.0001608515
 H       -14.1978626178        7.9969211650        2.7462655200
 H       -13.1174217756        6.6636216695        2.3715463893
 H       -13.4163295440        7.2382147163        4.1583569284
 H       -17.6648397436        5.0972820482        5.0275535760
 H       -17.0073078733        4.5164092502        3.4965905347
 H       -17.5830509773        6.2818930352        3.6776526140
 H       -15.9930358341        8.0037895457        4.8242497299
 H       -14.6702477904        7.4512706230        5.7885836431
 H       -16.4713795483        7.2428179685        6.2608415093
 H       -10.5048924742        3.9086242969        7.3762581222
 H        -9.3113334027        2.6811830927        6.9032637090
 H       -10.9238117901        2.2633690808        7.3069876682
 H        -9.8605202777        4.0957767344        3.5254135451
 H        -8.8330287173        4.0983327990        4.9541909664
 H       -10.2441981087        5.2364346662        4.8616907031
 H       -11.4025444401       -1.6163629068        1.4346583237
 H       -12.4631214836       -1.4404745087       -0.0840695578
 H       -12.8109615243       -0.6666937607        1.6562288605
 H        -9.6613658070        0.9858977135       -0.7651072757
 H       -10.5472999005       -0.4598212136       -1.2732699804
 H        -9.3424520937       -0.6594632832       -0.1791038640
 H       -13.3605613536        7.4422956508       -0.7856892511
 H       -12.3507627698        8.2683603026       -1.9894802140
 H       -11.6549521829        7.4086377274       -0.6717972361
 H       -14.6341088228        6.3221090775       -2.5625768718
 H       -13.7433653639        4.9811818937       -3.3577113511
 H       -13.5008855031        6.5772366811       -3.8307585467
 H        -7.7619641225        2.6192906552       -6.3040409083
 H        -8.4765352154        4.0955095724       -6.0247911153
 H        -9.3334461440        2.6954929886       -5.5405807579
 H        -8.7732673222        1.2463965869       -3.5541550469
 H        -7.7054920776        1.9065665740       -2.3578940998
 H        -6.9730350261        1.0403557741       -3.7088725021
 H        -0.8719274210        6.0866438124       -5.4617793899
 H        -2.3162038827        5.9407594038       -4.4639547763
 H        -2.4085379415        6.0004002946       -6.2026108515
 H        -1.8299461582        3.5832041288       -7.5619247555
 H        -0.4490389696        2.9799650603       -6.7789845250
 H        -0.4446145782        4.6105708064       -7.1767972109
 Na      -13.3695240069        3.8678414117        1.8341108308
