117

 C         0.9217509122        3.8176359172       -4.8796183243
 C        -0.5121170613        3.6181631900       -4.5210002392
 O        -0.7700696470        3.0061227050       -3.4615889312
 C        -1.5778493046        4.1109325843       -5.5232995814
 C        -2.9518234201        3.4331158869       -5.2408626479
 O        -3.5708824392        2.7718348889       -6.0416179699
 C        -3.5553635582        3.7330056685       -3.8227626836
 C        -4.8530929104        2.9114184873       -3.6737073922
 C        -6.1874949843        3.6234676663       -3.9305536474
 O        -6.1722481349        4.7473576150       -4.3745575776
 C        -7.5905799169        2.9744403208       -3.8024426147
 C        -8.5171368479        3.8462938449       -2.8867983536
 O        -9.0220877406        3.4442423260       -1.8872590024
 C        -8.7085893819        5.2955042449       -3.3748384016
 C        -9.8732971292        6.0203813076       -2.6874580988
 C       -11.2364013386        5.5261904773       -2.9359044930
 O       -11.5274818509        4.7718553948       -3.8283557835
 C       -12.5016672100        6.1457475348       -2.0608751336
 C       -12.6749019476        5.1299864561       -0.9511979634
 O       -12.4890370820        5.4954194228        0.2071464969
 C       -13.1028507254        3.7166379375       -1.2729035062
 C       -11.9643745171        2.6500525220       -0.9784731172
 C       -12.4877606711        1.2649607484       -0.4635078733
 O       -13.5933693102        0.7879359937       -0.5837128844
 C       -11.5331694925        0.3076044355        0.3896026835
 C       -11.0287082059        1.0562354367        1.7168139071
 O       -11.6781336191        1.9525464703        2.2080930710
 C        -9.7192026146        0.6239440022        2.3515539100
 C        -9.3405306624        1.7992190607        3.3803400811
 C       -10.3599682641        1.9156100136        4.4945262860
 O       -10.9797396020        0.9449993134        4.8310886316
 C       -10.6996104698        3.2486709263        5.3388957877
 C       -12.1099597123        3.7974823586        4.8419353208
 O       -12.1842307398        4.5233218328        3.8837066529
 C       -13.2988705355        3.1359933268        5.4951830245
 C       -14.6826486569        3.5684513732        4.9858898338
 C       -14.9856608050        5.0673430468        5.4729164652
 O       -14.6558472682        5.4381932500        6.5572794087
 C       -15.8577324330        5.9356151389        4.4872246411
 C       -15.0244806456        5.8728019386        3.2263512453
 O       -15.0941340368        4.9224053598        2.4327559270
 C       -13.8272369366        6.7763544186        3.1449165739
 C       -17.2648151577        5.3479480364        4.3294418725
 C       -15.9915690760        7.4167047984        5.0557490701
 C       -10.8143044979        2.8593971522        6.8694828563
 C        -9.6253519411        4.2708518253        5.0483293577
 C       -12.2868527225       -0.9371816417        0.9851919953
 C       -10.4388095256       -0.1930729368       -0.5038751264
 C       -12.1886424266        7.5264690189       -1.5045315912
 C       -13.6688678933        6.1052212885       -3.0000626232
 C        -8.2441451108        2.9662797850       -5.1889523689
 C        -7.5945130840        1.5181345956       -3.2122361935
 C        -1.7118583608        5.6448414423       -5.3528356950
 C        -1.1977479792        3.6324237638       -6.9640750096
 H         0.9133062646        4.8068993621       -5.4191662230
 H         1.4192469177        3.0001304970       -5.4563326972
 H         1.4179358797        4.0136056327       -3.9707137637
 H        -3.7289974868        4.7563957933       -3.5477196392
 H        -2.8892310882        3.3410575573       -3.0772097177
 H        -5.0120133575        2.6495944716       -2.5787455490
 H        -4.8804701898        1.9996519741       -4.3188450766
 H        -8.8455299193        5.4204080320       -4.4368332224
 H        -7.8147337212        5.9039689319       -3.1452961747
 H        -9.9304638067        7.0963669828       -3.1443696076
 H        -9.7462481513        6.1304718754       -1.6345056787
 H       -13.4017718855        3.6479750108       -2.3571882426
 H       -14.0238561427        3.4680883951       -0.7174471956
 H       -11.3644498025        3.1091407842       -0.2062899471
 H       -11.2464134116        2.5138754111       -1.8041353337
 H        -8.9042697515        0.4820729869        1.6352292264
 H        -9.8709863506       -0.3843141419        2.8606680379
 H        -9.1766061431        2.6775240150        2.8426032440
 H        -8.3158779068        1.6885757850        3.8277483540
 H       -13.2797567377        3.3400715341        6.6251651747
 H       -13.1485072087        2.0686105621        5.3976788763
 H       -15.4163476458        2.9643833154        5.5729966102
 H       -14.7371425767        3.4232556305        3.8731746701
 H       -14.0737467965        7.7695366736        3.4666269624
 H       -13.5052225757        6.7860972038        2.1243779380
 H       -13.1285308085        6.4348394351        3.8721416206
 H       -17.5671085558        5.4935412818        5.3523606831
 H       -17.3909246103        4.2942880886        4.0227862779
 H       -17.8593567681        6.0418565887        3.7095117408
 H       -16.4324831465        8.1069515872        4.3427132079
 H       -14.9410341192        7.6911059967        5.3236464730
 H       -16.7108840842        7.3687615417        5.9107422882
 H       -11.2951575660        3.6334175336        7.5401744723
 H        -9.7818187460        2.7229681540        7.3014330763
 H       -11.3459629014        1.9354401608        6.9699878054
 H        -9.8315060342        4.6735420315        4.0960459091
 H        -8.6183977874        3.9544498423        5.0407554980
 H        -9.6619012219        5.0552363361        5.8433322843
 H       -11.5538874448       -1.4173857872        1.5341087006
 H       -12.5345841256       -1.6027025349        0.1663187040
 H       -13.1251473510       -0.6918588774        1.5994150628
 H        -9.6493633327        0.5755847929       -0.6444267288
 H       -10.7688580831       -0.5075207313       -1.5119080553
 H        -9.9570703272       -1.1120523646       -0.1499421085
 H       -12.8451771704        7.6331223445       -0.5741056436
 H       -12.6208837074        8.3868995569       -2.1280301888
 H       -11.1113887278        7.6294555221       -1.2937007173
 H       -14.6552397515        6.0694580513       -2.3786002943
 H       -13.5816514568        5.1933020750       -3.6105214093
 H       -13.6765220307        6.8624162437       -3.7598866948
 H        -7.7517424883        2.3508539789       -5.8997428881
 H        -8.1265746613        3.9737807634       -5.6263129606
 H        -9.3702329777        2.7761595187       -5.2428563150
 H        -8.4745622159        1.2409254839       -2.6470515729
 H        -6.7976251675        1.6021654106       -2.4767298947
 H        -7.3792003334        0.7465854079       -3.9882581573
 H        -0.8245120480        6.0325374642       -5.8451005689
 H        -1.6642479251        5.9218655984       -4.2676459122
 H        -2.5980552640        6.1254741258       -5.8290619232
 H        -2.0924206235        3.7968329773       -7.6159048274
 H        -0.9510153823        2.6039737810       -7.0921556177
 H        -0.3703459166        4.2447441721       -7.4178421393
 Na      -12.8590711958        3.8406972087        1.7661828343
