117

 C        -5.9176452052       -4.6852497690        4.7375007670
 C        -6.2844341163       -5.1972040026        3.3947943644
 O        -5.6422472897       -6.1848003060        3.0579844592
 C        -7.2946358544       -4.3794431012        2.4619715216
 C        -8.7476591651       -4.4164016189        2.8957863522
 O        -9.2740616875       -5.3318959554        3.5061576125
 C        -9.6242556706       -3.2474000778        2.2793085291
 C       -11.0695987682       -3.2867525081        2.9973564260
 C       -11.6773039013       -1.8770756974        2.8253777822
 O       -12.1063322152       -1.4584355449        1.7646450207
 C       -11.5551724239       -0.8098306915        4.0057988124
 C       -10.5294644881        0.1699014028        3.4716564731
 O        -9.3363240413        0.0742528741        3.6899245256
 C       -10.9082250141        1.2996042760        2.4726225050
 C        -9.6792292180        1.8075657014        1.8356171339
 C        -9.9280203385        2.7621045748        0.7046444544
 O        -9.5678367363        3.9083976997        0.7506145615
 C       -10.3108485680        2.1562270529       -0.7313263391
 C       -11.8830422734        2.5250414003       -0.8921578153
 O       -12.5259827092        2.6294054819        0.1180164974
 C       -12.6318091466        2.5349175398       -2.2888955286
 C       -13.6005624693        3.7780239662       -2.4197261099
 C       -12.7177989388        4.9573743513       -2.0963299907
 O       -11.6644244353        4.8290761900       -1.5301215370
 C       -13.2712169152        6.4956902081       -2.3332475508
 C       -11.8877041686        7.2996748297       -2.8812137806
 O       -10.8310355960        7.3344771183       -2.2230118719
 C       -12.0355245317        7.9104770548       -4.2474778520
 C       -10.8206962288        8.7855924899       -4.5838697440
 C       -10.7512165496       10.0850523029       -3.6856545050
 O       -11.6543404403       10.4907090344       -2.9858942640
 C        -9.4252768170       11.0222456198       -3.6797334242
 C        -8.5998330359       10.3964995954       -2.4745934775
 O        -7.5955964406        9.8236513005       -2.7782143549
 C        -9.0159571607       10.5396270424       -0.9770950320
 C        -7.8655831648       10.0119460318       -0.0749326600
 C        -7.9527855385        8.4816981309        0.2168983121
 O        -9.0165751717        7.9478205340        0.5369118545
 C        -6.7202558185        7.5542437065        0.1663177067
 C        -6.5881574038        6.9206193795       -1.2227859168
 O        -7.5410566634        6.3400895592       -1.6441066888
 C        -5.3226197219        6.8388834361       -2.1211923095
 C        -5.3544578998        8.4073386995        0.3477314931
 C        -6.7485879681        6.4543816471        1.2567070067
 C        -8.7068849077       10.9879718222       -5.0275764785
 C        -9.9879514754       12.4478906233       -3.4298197418
 C       -14.4629930383        6.5505285473       -3.3919710098
 C       -13.7669306009        6.9740257952       -0.9372215649
 C        -9.3076053037        2.7234012853       -1.7287013696
 C       -10.1952937342        0.6464679498       -0.8174816240
 C       -12.9230875596       -0.1435664096        4.3973487461
 C       -11.0183271950       -1.4464176772        5.2942297252
 C        -6.7476397438       -2.9835117849        2.2820029156
 C        -7.3469044502       -5.1057931268        1.0081160471
 H        -5.3791119746       -3.7288433766        4.6993039001
 H        -5.2204332431       -5.5074858927        5.1316570875
 H        -6.8297329704       -4.5141205179        5.3216470660
 H        -9.6347666406       -3.3239611992        1.1628233294
 H        -9.2039784683       -2.3138261286        2.6984647288
 H       -10.8061838540       -3.5175934931        4.0462548800
 H       -11.6433642926       -4.1445351548        2.5506261240
 H       -11.3528988574        2.0446079466        3.2010396090
 H       -11.7189461346        1.0013501677        1.7449820770
 H        -9.1472803417        0.9714917087        1.5267170769
 H        -9.0038716252        2.2983534826        2.5662877850
 H       -13.1307449889        1.5965399496       -2.3375901851
 H       -12.0365886532        2.4025673004       -3.1572486810
 H       -14.3781411024        3.7638995705       -1.6241847105
 H       -14.0376180693        3.7107802683       -3.3364051644
 H       -13.0054128624        8.5908170990       -4.3740585275
 H       -12.1167207338        7.0050556049       -4.9200323267
 H       -10.9558693937        9.2184676240       -5.5791489622
 H        -9.9325999380        8.1524902054       -4.4621654895
 H        -9.9155421495       10.0384822689       -0.6930923951
 H        -9.2151009659       11.6376265525       -0.6830896756
 H        -7.8370736560       10.5209157965        0.9379614286
 H        -6.8897949442       10.1465151801       -0.5782516479
 H        -4.7568783173        7.7779845644       -2.2806501691
 H        -5.6444241633        6.4192259935       -3.0533458844
 H        -4.6492546239        6.1514080829       -1.6528772988
 H        -5.4950656896        8.8706412543        1.2709590859
 H        -5.2425505271        9.2552327705       -0.3140992997
 H        -4.4060081137        7.8445784886        0.3826502514
 H        -7.2891888680        6.9762881147        2.0543823905
 H        -5.7338322463        6.0882217362        1.4644353999
 H        -7.4409725995        5.6156550894        1.0109875331
 H        -9.4125116533       11.1041329880       -5.8954769741
 H        -8.0107386287       10.1096851209       -5.2294174578
 H        -8.1040459855       11.8841376815       -5.1414739229
 H        -9.0993946278       13.0218982695       -3.3012068777
 H       -10.6236824867       12.4936498383       -2.4773398091
 H       -10.5510694205       12.6735222537       -4.3536031554
 H       -15.1664839388        5.9269564909       -2.8850464439
 H       -14.1843439836        6.0559784670       -4.2744260733
 H       -15.0088072951        7.5337541696       -3.4587635068
 H       -14.7379361603        6.6150433343       -0.6011250690
 H       -13.9202447709        8.0040962058       -1.0512765870
 H       -12.9744212728        6.8787489571       -0.2377750070
 H        -9.4466964017        2.4004561085       -2.6985489417
 H        -8.2109611551        2.4720855020       -1.5388990286
 H        -9.3917708272        3.7503332533       -1.8499523922
 H       -11.0311911666        0.2264575353       -0.2363816536
 H        -9.2701136363        0.3687159152       -0.3337508195
 H       -10.3263593444        0.2415079481       -1.8436617688
 H       -13.3695196368       -0.6293906297        5.2973751902
 H       -13.7252075505       -0.3140976872        3.6590990050
 H       -12.8349775848        0.8824166498        4.6675199803
 H       -11.6955794876       -2.1922739505        5.7970535710
 H       -10.8384601576       -0.6905080657        6.0680415286
 H        -9.9400684746       -1.7204351510        5.2073857009
 H        -7.1360610156       -2.3465727471        3.1050598328
 H        -7.1271511738       -2.6091343386        1.3761089415
 H        -5.6797083992       -3.0245630018        2.4937535838
 H        -8.3254690139       -5.4386154179        0.8483160797
 H        -6.7755518099       -5.9960549441        1.0270931720
 H        -7.0650202376       -4.4490497592        0.2057528010
 Na       -9.7351162474        5.9048879530       -0.6009044435
