117

 C         1.0906937741        3.7194440413       -4.9935377106
 C        -0.4395348584        3.4737996695       -4.7085014050
 O        -0.6070065083        2.7552233692       -3.7676841228
 C        -1.6043185862        4.0572832944       -5.5593106436
 C        -2.9918017861        3.4341613512       -5.1481494592
 O        -3.5925887428        2.7956783472       -5.9903165745
 C        -3.5272167784        3.7118325129       -3.7655593856
 C        -4.8311096422        2.9109448488       -3.3876120127
 C        -6.1360776307        3.6014887216       -3.8305915639
 O        -6.0355982974        4.7486856216       -4.1834801142
 C        -7.5564006607        2.8639074422       -3.6568667964
 C        -8.4847797565        3.7499266089       -2.7943439339
 O        -8.9707291919        3.3586755708       -1.7057831004
 C        -8.7995913850        5.1635411745       -3.2873618236
 C        -9.9556330450        5.9732244068       -2.6149571949
 C       -11.3735770288        5.4799788806       -3.0180640231
 O       -11.5056085112        4.5674449394       -3.7964525143
 C       -12.5206878445        6.0726158216       -2.1615025542
 C       -12.7022915758        5.0568246583       -1.0214368128
 O       -12.6524693176        5.4533529412        0.1412100724
 C       -12.9755515509        3.5754532250       -1.3009492781
 C       -11.9166642289        2.5564119222       -0.8506715626
 C       -12.6377143138        1.2347179589       -0.3830066770
 O       -13.7803404325        1.0946409921       -0.6667324276
 C       -11.6365792150        0.2450553292        0.2982301320
 C       -11.0727790090        1.1098268937        1.5169987804
 O       -11.8080256307        2.0270992577        1.9343013990
 C        -9.8158797846        0.8889205165        2.3690776420
 C        -9.5041663659        2.0236104985        3.3015503504
 C       -10.3692969326        1.9496850811        4.5504555629
 O       -10.9076907745        0.9076358809        4.8802476037
 C       -10.6640758775        3.2249753002        5.3953010154
 C       -11.9693132596        3.8292963121        4.8831095108
 O       -11.9868045522        4.6486301497        3.9439445660
 C       -13.2573622588        3.3386637008        5.6106592719
 C       -14.6989665307        3.7261397736        5.1887317576
 C       -14.9520675055        5.1718868944        5.5435677700
 O       -14.7183319097        5.7010623390        6.5840799777
 C       -15.8334304720        5.9816501987        4.3737518034
 C       -14.9612910299        5.8706639329        3.1025570452
 O       -14.8722138554        4.8694735267        2.3848639068
 C       -13.9289062186        6.9689698713        2.7713475504
 C       -17.1550435415        5.0863703306        4.1457049088
 C       -16.1550864421        7.3543986543        4.8665612346
 C       -10.7074719141        2.7831653862        6.8742221355
 C        -9.6099606802        4.3444092401        5.3540361563
 C       -12.4397182721       -0.9224442896        0.9840141519
 C       -10.5293996423       -0.2157730434       -0.6815711044
 C       -12.1485811649        7.4605467850       -1.6091073474
 C       -13.8713039585        6.2313639763       -2.8758255593
 C        -8.2044623606        2.6605450691       -5.0129299686
 C        -7.3184927488        1.4547094724       -2.9750452738
 C        -1.7801201402        5.5972070795       -5.5247449871
 C        -1.2907189984        3.7541599084       -7.0353109345
 H         1.5465578074        4.4443978893       -4.3564628140
 H         1.2514164632        3.8977617104       -6.0443634215
 H         1.5568850083        2.6941951482       -4.7969290439
 H        -3.5116629973        4.8401154351       -3.7273874691
 H        -2.8066619162        3.3771204057       -2.9768461670
 H        -4.9353758147        2.6450100136       -2.3432170048
 H        -4.6755933446        1.9946347666       -3.9573960148
 H        -9.0022475131        5.1474073431       -4.3719539641
 H        -7.9400655939        5.8096573794       -3.1686942634
 H        -9.8577253175        6.9687300239       -2.9244148532
 H        -9.8970331849        5.9670235318       -1.4772190764
 H       -13.2667541676        3.3546532080       -2.2879962573
 H       -13.8202249892        3.3905070641       -0.6492060136
 H       -11.2081253453        2.9835364576       -0.0821610714
 H       -11.2395751569        2.4577713029       -1.7307430999
 H        -8.9017024452        0.8051347582        1.7563643741
 H        -9.8307035163        0.0036505192        2.9604801610
 H        -9.6002108179        3.0223183619        2.7775959048
 H        -8.4642299709        1.9903966763        3.4941589832
 H       -13.0979142104        3.6695913729        6.6051247411
 H       -13.1987601715        2.2233339963        5.6707675726
 H       -15.4341716107        3.2210597765        5.8330413877
 H       -14.8121101400        3.4404015681        4.1480485427
 H       -14.4187085252        7.9613825632        2.5494522737
 H       -13.3946623562        6.5896247038        1.9025618378
 H       -13.3300264063        7.1451864244        3.6755684118
 H       -17.6495757904        4.7544825015        5.1175273999
 H       -16.7366130235        4.2623548364        3.5742120838
 H       -17.7897470597        5.5731668663        3.4568599638
 H       -17.0042067078        7.7481568783        4.2375110820
 H       -15.2560701992        7.9161841947        4.8197046077
 H       -16.4940148878        7.2649995747        5.8760719702
 H       -11.1491279236        3.5493142759        7.4172636383
 H        -9.7773916450        2.6553434305        7.3135953343
 H       -11.3673448535        1.8415134465        7.0161344991
 H        -9.3240638539        4.6703286927        4.3289845919
 H        -8.6669489631        4.0256228541        5.8479631633
 H        -9.8956403786        5.1740831384        5.9558886020
 H       -11.6706951152       -1.6667977607        1.4067306881
 H       -13.0305349079       -1.4130019703        0.2264040727
 H       -13.1592577403       -0.4888172975        1.7302328300
 H        -9.9074013024        0.4967560398       -1.1626937226
 H       -10.9885267194       -0.7440208053       -1.5468357574
 H        -9.9007308158       -0.9615836744       -0.1731463637
 H       -12.9895748391        8.0591644192       -1.4308066266
 H       -11.6646193694        7.9863020051       -2.3897352157
 H       -11.4494278944        7.3554902103       -0.7458982559
 H       -14.5978869189        6.4075675698       -2.1645580487
 H       -14.1547076578        5.4590601096       -3.5650495378
 H       -13.6962041271        7.0918819429       -3.5561202141
 H        -7.9649353932        1.7185106214       -5.5691152965
 H        -7.9232054816        3.4640686075       -5.6436636717
 H        -9.2368221796        2.6967234113       -5.0212779529
 H        -8.2531554918        0.8579658750       -3.0040491267
 H        -6.9880032111        1.5477517554       -1.9447276731
 H        -6.6924763287        0.8890660637       -3.6417332159
 H        -0.9919513589        6.1907631469       -5.9635663916
 H        -1.9407837353        5.9429680188       -4.5369593441
 H        -2.6617288097        5.7321721189       -6.0660928275
 H        -1.8930979832        4.1954815375       -7.8068365470
 H        -1.3560904981        2.6512315407       -7.1416192478
 H        -0.3073856923        4.0441536832       -7.2867731741
 Na      -12.8663956916        4.0985661396        1.8941326958
