117

 C         1.0716501437        3.7755655195       -5.0870060710
 C        -0.4095733532        3.4069655237       -4.7674539820
 O        -0.6958438858        2.6592319233       -3.8141281816
 C        -1.5947514798        4.0307289914       -5.6690965346
 C        -2.9732645741        3.4403182744       -5.2144713904
 O        -3.6751174029        2.7296209786       -5.8732410179
 C        -3.4130871375        3.6596462970       -3.7210084028
 C        -4.6479622168        2.8667955699       -3.3849478086
 C        -6.0380560329        3.5942490812       -3.7340114086
 O        -6.1715384324        4.7235956949       -4.1299356922
 C        -7.4917304756        2.8130497119       -3.6034470098
 C        -8.5155417845        3.7081752623       -2.7421481579
 O        -8.9211007833        3.3749884040       -1.6499375935
 C        -8.8313262939        5.1496196564       -3.3419494801
 C        -9.9385824969        5.8548162462       -2.5469210812
 C       -11.3257410168        5.3881326543       -2.9520378764
 O       -11.5226388549        4.5405632811       -3.8079662745
 C       -12.5446764878        6.0891758254       -2.2058748494
 C       -12.7842221574        5.0268725928       -1.0068640086
 O       -12.5625455561        5.4119100692        0.1295635086
 C       -13.0654726661        3.5816663010       -1.4110204367
 C       -11.9510887355        2.6186631642       -0.9627648317
 C       -12.5732943221        1.2955160634       -0.5196118373
 O       -13.7450175711        1.0641359193       -0.5616386375
 C       -11.6882839300        0.3179814746        0.3431700657
 C       -11.1815897253        1.1634522448        1.5418225522
 O       -11.8836922122        2.0921740392        1.9114283655
 C        -9.7973134922        0.9326000752        2.1557641783
 C        -9.5638409130        2.0760639926        3.2246557952
 C       -10.3754846049        1.9655873582        4.5520088556
 O       -10.8964165504        0.9376021734        4.8714223564
 C       -10.6212020290        3.2623789831        5.5600475328
 C       -11.9417422207        3.8026573160        5.0482221767
 O       -11.9906225363        4.5456358589        4.0375258484
 C       -13.1931804145        3.3075513098        5.8117816040
 C       -14.5471510929        3.7380110226        5.2557592313
 C       -14.9825229944        5.1891307476        5.5011184313
 O       -14.7170573144        5.8098032898        6.4727404049
 C       -15.7871997794        5.9528808466        4.2644366533
 C       -14.8262299675        5.9100228908        3.0526849808
 O       -14.8842518368        4.8513271158        2.4330766686
 C       -14.0778727337        7.1754083389        2.6442226816
 C       -17.0900179410        5.0915850357        4.0124291754
 C       -16.3083129831        7.3330027193        4.7428940808
 C       -10.6480723431        2.7701206978        7.0581554527
 C        -9.5198178363        4.3412542567        5.3404598245
 C       -12.5376484499       -0.8676575541        0.8935741261
 C       -10.6025066064       -0.1765891412       -0.5685095918
 C       -12.1480806618        7.4458062234       -1.6193938508
 C       -13.9084719892        6.2127444893       -3.0038365217
 C        -8.0763428784        2.5365762815       -4.9990641487
 C        -7.2639124271        1.4966550945       -2.8367493957
 C        -1.6625700809        5.6056989701       -5.4007850873
 C        -1.3901758433        3.6711201790       -7.1974897293
 H         1.5046784374        4.0955246151       -4.1699715267
 H         1.1047731158        4.5336653820       -5.8849898638
 H         1.6302075907        2.9183993422       -5.4184809920
 H        -3.5205333124        4.7570729497       -3.5850303073
 H        -2.6991370221        3.3470782269       -2.9246767931
 H        -4.6976534495        2.6539345486       -2.2895957061
 H        -4.5292396678        1.8948719873       -3.8704858797
 H        -9.1428498857        5.1053171774       -4.3922379922
 H        -7.9679747488        5.8505947835       -3.3090003538
 H        -9.9371423714        6.9046886168       -2.7703359668
 H        -9.7746489700        5.7590171797       -1.4712745559
 H       -13.2122147898        3.4985793517       -2.4903004411
 H       -13.9786253428        3.2501857071       -0.8762652823
 H       -11.3448900099        2.9632709082       -0.1447878213
 H       -11.2403729152        2.6306962050       -1.7870338689
 H        -8.9855484406        0.8940979976        1.4025573179
 H        -9.7029890080        0.0186200250        2.6851428744
 H        -9.8367143692        3.0384431249        2.7580692633
 H        -8.4557482179        2.2250560595        3.4453243647
 H       -13.0758655338        3.6092813321        6.8276087992
 H       -13.1886582618        2.2087558487        5.8440191695
 H       -15.3196248180        3.1967646467        5.7984146700
 H       -14.5875291957        3.3882473607        4.2451029015
 H       -14.8418789678        7.9387285115        2.2568880345
 H       -13.3131397607        6.9663135695        1.8831824058
 H       -13.7358614846        7.6221367349        3.5713422512
 H       -17.6269450558        4.8424403281        4.9647669433
 H       -16.8684376295        4.2251690861        3.3231673108
 H       -17.6341399882        5.7396787093        3.3795143988
 H       -17.0912045247        7.7276015362        4.0711851809
 H       -15.4051186739        7.9114721389        4.8471371498
 H       -16.6681798357        7.2070701126        5.7612135794
 H       -10.6613926081        3.6229991466        7.7078714699
 H        -9.7812893723        2.2230000765        7.3316398446
 H       -11.5316423157        2.1628575924        7.2791714748
 H        -9.3346767396        4.5402533795        4.2979980169
 H        -8.5689626981        4.0305224430        5.7694551802
 H        -9.7073257449        5.3218774335        5.8782856128
 H       -11.8696039572       -1.6890188972        1.2242086369
 H       -13.1762264986       -1.1890352407        0.0724579549
 H       -13.2688398515       -0.4746883155        1.6637951481
 H       -10.1444899741        0.5340041507       -1.1875494946
 H       -10.9683649582       -0.8781974626       -1.3608931281
 H        -9.8330060339       -0.6709051973        0.0005723364
 H       -12.8789072921        8.1654365304       -1.4763012945
 H       -11.5278987916        7.8567115578       -2.3624527977
 H       -11.5607624623        7.2898959356       -0.7667670066
 H       -14.6490930483        6.4752975672       -2.2479291718
 H       -14.2046023924        5.3335430472       -3.4824289975
 H       -13.8133442106        6.9295782708       -3.7876236128
 H        -7.7246469360        1.6031302548       -5.4526082693
 H        -7.9543159443        3.3161600545       -5.7079539526
 H        -9.1544226984        2.3638782945       -4.9805273275
 H        -8.1203452341        0.8971523718       -3.1153720197
 H        -7.2681016435        1.6401379480       -1.7909579211
 H        -6.4455492785        0.9217633098       -3.2719134703
 H        -0.7084235649        6.0757626690       -5.5648133048
 H        -1.8794984178        5.7646727648       -4.3386113561
 H        -2.4120409152        6.0658464384       -5.9864787009
 H        -2.2992349902        3.9196255260       -7.7935477118
 H        -1.3825071733        2.6105287386       -7.1785016680
 H        -0.5947499909        4.0711932721       -7.7823489282
 Na      -12.9202855748        4.1950838048        1.9865949161
