117

 C         0.9482387521        3.7109371624       -5.2864259978
 C        -0.4220283891        3.2573962091       -4.8572508189
 O        -0.6447219216        2.4809666698       -3.9841688503
 C        -1.6906674640        3.9887881646       -5.6464055318
 C        -3.0739271745        3.3874022410       -5.1373201920
 O        -3.6924197860        2.6306591981       -5.8744580417
 C        -3.4842614200        3.6773027960       -3.7318456509
 C        -4.7017008280        2.8093166997       -3.2654927903
 C        -5.9906575269        3.5738869256       -3.5976701889
 O        -5.9992489381        4.7116231842       -4.0375614508
 C        -7.3263004966        2.7311787196       -3.3983212716
 C        -8.4320348015        3.6530245017       -2.7452804456
 O        -8.8185539160        3.3317286155       -1.5987614914
 C        -8.8927761103        4.9215222948       -3.4781291789
 C        -9.8726026997        5.6657311122       -2.5750582855
 C       -11.3179225529        5.3596533654       -2.9617799691
 O       -11.5940855881        4.5801367824       -3.8464519861
 C       -12.5050527302        6.1060405659       -2.2584174875
 C       -12.7766013428        5.0465780118       -1.1238964074
 O       -12.4176642270        5.3224859217        0.0244877476
 C       -13.3313072991        3.6629382606       -1.4348887781
 C       -12.1830661079        2.5680089421       -1.2492694550
 C       -12.7288637360        1.3207632317       -0.6061088332
 O       -13.9086633146        1.1310020153       -0.6269953809
 C       -11.7488585054        0.5235157270        0.3356376797
 C       -11.2503684197        1.3727389417        1.5708079382
 O       -12.1524163242        2.0720479839        2.0319470200
 C        -9.8665173242        1.2340872031        2.2863958796
 C        -9.5661616462        2.2737924093        3.3541537419
 C       -10.3390337060        1.9668333475        4.5962386600
 O       -10.8883743656        0.9171083395        4.8636940105
 C       -10.5231009856        3.1771832743        5.6498036381
 C       -11.9584808943        3.7421746856        5.2670548298
 O       -12.0467779321        4.4271714259        4.2641497709
 C       -13.2080010905        3.4769467520        6.0828703695
 C       -14.5101600775        3.8246302746        5.2642934733
 C       -14.9414504546        5.3086278571        5.3842193740
 O       -14.5538892956        5.9477445606        6.3193186320
 C       -15.9614898981        5.9348535615        4.1798193548
 C       -15.0288617247        6.0209891830        2.9225061652
 O       -14.8156298272        4.9830142241        2.2858096194
 C       -14.4238042607        7.3943189633        2.4951444110
 C       -17.1487543674        4.9423286401        3.9069613843
 C       -16.3410512427        7.3291986974        4.7367653459
 C       -10.2317573181        2.6857630434        7.0846372958
 C        -9.4261760611        4.2174998368        5.3464609750
 C       -12.5963385403       -0.7147945551        0.8358117166
 C       -10.5298951456       -0.1035564079       -0.3181464973
 C       -12.3019877923        7.4877463942       -1.6665933239
 C       -13.6455016691        6.1547107595       -3.2915525458
 C        -7.6899177393        2.4127709381       -4.8308229571
 C        -7.1945484465        1.4984051287       -2.5657755054
 C        -1.5854470602        5.5752881611       -5.4247081310
 C        -1.5755471736        3.7261633916       -7.1797991621
 H         1.6542345816        3.1740617815       -4.6596511360
 H         0.9939285893        4.7719932708       -5.2294044464
 H         1.0996872967        3.4837411637       -6.3656085988
 H        -3.7990603947        4.7091220486       -3.7229942883
 H        -2.5981657651        3.6545205855       -3.1166930133
 H        -4.6625009039        2.4731637753       -2.1938210183
 H        -4.7833247904        1.8561490942       -3.8531913067
 H        -9.2918367525        4.7118737120       -4.4758497205
 H        -7.9745744241        5.4885205247       -3.6009851410
 H        -9.7206141857        6.7686251444       -2.5336696488
 H        -9.7059927060        5.2924635764       -1.5581593932
 H       -13.8085746053        3.6527157039       -2.4312141786
 H       -14.0444060180        3.3933486776       -0.6311147106
 H       -11.3887464399        2.9386872408       -0.5803324883
 H       -11.6256427243        2.4377208074       -2.1677870234
 H        -9.1348192892        1.3671462862        1.4886320350
 H        -9.6303758421        0.2127001072        2.6981522831
 H        -9.8605194903        3.2478567035        2.9230413103
 H        -8.5306192955        2.3552884471        3.5846999555
 H       -13.2105993661        4.1127960683        7.0113888168
 H       -13.2053782556        2.4547265389        6.4860125724
 H       -15.3334926615        3.0948317848        5.4944346100
 H       -14.3336037003        3.6433198267        4.1684320714
 H       -15.1683591770        7.8331037849        1.8846704633
 H       -13.5830426979        7.1759121418        1.8632626557
 H       -14.1975934262        8.0914671893        3.3065380963
 H       -17.6959380948        4.9126611463        4.8451749992
 H       -16.6420402027        4.0242913031        3.7014983048
 H       -17.7351259049        5.1352724484        2.9836090867
 H       -16.6273733661        7.8482267927        3.8114742935
 H       -15.5341273166        7.7544151185        5.3603661742
 H       -17.1953486909        7.2216680522        5.4172791191
 H       -10.1626312487        3.4382490432        7.8709407262
 H        -9.2520180699        2.1900012963        7.0112442518
 H       -10.9731853235        1.8676266174        7.4522730033
 H        -9.5865423435        4.8176680821        4.4320339607
 H        -8.4362609054        3.7532410654        5.2728038692
 H        -9.3312339231        4.9164701511        6.1126762022
 H       -11.9218816069       -1.3333289750        1.3807571454
 H       -13.0576737931       -1.2243061860        0.0293383657
 H       -13.3789729128       -0.3528035844        1.4177082383
 H        -9.8168730520        0.6271887983       -0.7555954496
 H       -10.7492333599       -0.6408269818       -1.2063182688
 H        -9.9580245790       -0.6814313905        0.4083873829
 H       -13.1036053564        7.5959222490       -0.8789345425
 H       -12.3778314656        8.3563286599       -2.3523257832
 H       -11.3799665947        7.5174410899       -0.9943706984
 H       -14.5634727664        6.5040200069       -2.8540698977
 H       -13.8278383083        5.1417232810       -3.7515495878
 H       -13.2574752085        6.8314584330       -4.1050354270
 H        -6.9054058060        1.8568737175       -5.3809929150
 H        -8.0175226564        3.2600771069       -5.4668828754
 H        -8.4871338610        1.6809537338       -4.9155746683
 H        -8.1867957568        1.0482408448       -2.5266211564
 H        -6.8709256420        1.8098428377       -1.5593405558
 H        -6.5418667483        0.7997522790       -3.0410699442
 H        -0.6936532759        6.0196767316       -5.9309892772
 H        -1.4248619552        5.7539116340       -4.3511536515
 H        -2.5362272169        6.0995151889       -5.7338943010
 H        -2.4571199648        3.9694186335       -7.7326249700
 H        -1.3592230088        2.6310503893       -7.3305247917
 H        -0.8214363444        4.3495010042       -7.6825680265
 Na      -12.7328716858        4.1495222534        2.0628252937
