117

 C         0.9830087050        3.5539657485       -5.4025448746
 C        -0.4914167527        3.2483439060       -4.9263039098
 O        -0.6285972131        2.3786334832       -4.0530092623
 C        -1.6962213967        4.0247281713       -5.6542604170
 C        -3.0228243041        3.3280278069       -5.1388685105
 O        -3.6997997064        2.6266607577       -5.8323547839
 C        -3.3914507547        3.7181348721       -3.7185817825
 C        -4.5785095050        2.8502415718       -3.2348565118
 C        -5.9406704272        3.5222869210       -3.4918857159
 O        -5.9739376218        4.6550573782       -3.9048004107
 C        -7.2860125816        2.6521970399       -3.3450182650
 C        -8.4275787076        3.6001662989       -2.6980178319
 O        -8.8376697709        3.3510598948       -1.5575400643
 C        -8.9086599693        4.8461013027       -3.4140770507
 C        -9.8664126965        5.7223570049       -2.6066364139
 C       -11.2944164634        5.4305952682       -3.0756771943
 O       -11.5090278610        4.5727669150       -3.9024890335
 C       -12.6081974494        6.0370963180       -2.2748995123
 C       -12.8089615286        5.0525773949       -1.1332372427
 O       -12.3525509032        5.3532523417       -0.0287903633
 C       -13.3521667471        3.6259964837       -1.3409968097
 C       -12.2215802204        2.6248058979       -1.3541703567
 C       -12.7777090142        1.3436058777       -0.5692141532
 O       -13.9229043497        1.0447822581       -0.6393900956
 C       -11.7638099153        0.5115941499        0.3825811551
 C       -11.4302425222        1.3757261337        1.5658182392
 O       -12.2333606847        2.0706709013        2.2160688485
 C       -10.0311423951        1.3089384026        2.1390351997
 C        -9.7042334342        2.2795192318        3.2758584542
 C       -10.4110630549        1.9771878235        4.6207795979
 O       -10.8592065033        0.8873718952        4.8722470491
 C       -10.4893400756        3.1729256677        5.7042211556
 C       -11.9319302045        3.8241075686        5.3618677017
 O       -11.9518304084        4.4577591828        4.2829868819
 C       -13.2257821357        3.6130898652        6.1465360130
 C       -14.4729476456        3.8393871496        5.2755272580
 C       -14.8891790038        5.3106396370        5.3118525236
 O       -14.5082553743        6.0505772967        6.1602289692
 C       -15.8801754179        5.8650609486        4.2709327625
 C       -15.0877797073        6.0271088829        2.8995544013
 O       -14.8224022221        5.0560216741        2.2135748402
 C       -14.6017883663        7.4207588862        2.4401740328
 C       -17.0710307406        4.9756576330        3.9949556680
 C       -16.4588869300        7.2498592131        4.7429441923
 C       -10.1968521914        2.5570006415        7.1161903997
 C        -9.4821971559        4.3078783256        5.4002724986
 C       -12.6056608688       -0.7009904113        1.0048279623
 C       -10.4604180330        0.0588492451       -0.3912589372
 C       -12.2812944878        7.4496649581       -1.7131476491
 C       -13.6616857711        6.2157879675       -3.4279022139
 C        -7.5906773673        2.2705328694       -4.8917248701
 C        -7.0330383478        1.4840464138       -2.4759910824
 C        -1.7981200588        5.5192113938       -5.4040533063
 C        -1.5982202250        3.7576553898       -7.1752953739
 H         1.5582540334        2.6760064687       -5.2191946656
 H         1.4006429808        4.4826857632       -4.9650523895
 H         0.9294934031        3.7597001800       -6.5190101602
 H        -3.6090984004        4.7810698137       -3.5436756618
 H        -2.4538318374        3.5234293843       -3.1584486798
 H        -4.4243669258        2.5914829432       -2.1807366473
 H        -4.6151681211        1.8695430286       -3.7299663697
 H        -9.5261123131        4.4959151957       -4.2506700064
 H        -8.0838996468        5.3974728010       -3.8265065114
 H        -9.6885699946        6.7300118107       -2.8772686117
 H        -9.7963963856        5.6911140328       -1.4538875981
 H       -13.8291118534        3.6044329157       -2.2782756310
 H       -14.0222937960        3.3066072990       -0.5518068598
 H       -11.2142879321        3.0300966210       -1.0292901686
 H       -12.0056289679        2.3490887507       -2.4169884675
 H        -9.1860804871        1.3217080893        1.3944441966
 H        -9.9304771851        0.3282234831        2.5799299506
 H        -9.8922351178        3.2868636885        2.8581379590
 H        -8.6784577015        2.2149306825        3.4895970753
 H       -13.3654611159        4.3070280195        6.9637397851
 H       -13.2241903546        2.6009874064        6.6642169643
 H       -15.2784222489        3.2080976302        5.7342890835
 H       -14.4641980661        3.4472084490        4.2353568564
 H       -15.4291889873        7.9441117529        1.8993555429
 H       -13.7835365759        7.2681140600        1.7780778889
 H       -14.3080133501        7.9951980281        3.2862429395
 H       -17.6409263954        5.0320377864        4.9524542668
 H       -16.6433580661        3.9794229553        3.7825653038
 H       -17.5891860817        5.2676199903        3.1703923176
 H       -16.7251077124        7.7910439687        3.7896727329
 H       -15.9268307382        7.6893080467        5.5517820519
 H       -17.3727981285        6.9590861289        5.2125813880
 H       -10.4869937352        3.2038307852        7.9355805535
 H        -9.1393912893        2.3494675064        7.1878347731
 H       -10.7519977901        1.5615219147        7.3142358786
 H        -9.8031131640        5.0296262162        4.6613617416
 H        -8.5320791363        3.9017895154        5.0644143163
 H        -9.2595823303        4.9206636129        6.2564729894
 H       -12.0164577611       -1.0876321994        1.8416779179
 H       -12.9033932718       -1.4226811545        0.3382946726
 H       -13.5020165837       -0.1908171962        1.3722281458
 H        -9.8231382319        0.8397587393       -0.6623040400
 H       -10.7287114561       -0.3091021273       -1.4343862495
 H        -9.8176980153       -0.6563015178        0.1483430598
 H       -12.8558357917        7.6216927820       -0.7765139469
 H       -12.5002044311        8.3067540614       -2.4269235977
 H       -11.2210720661        7.4964589336       -1.2568541824
 H       -14.6002977832        6.5713435043       -2.9787466379
 H       -13.8801867488        5.3201103733       -4.0160751771
 H       -13.2109014686        7.0370712704       -4.0819710893
 H        -6.7036505438        1.7811710998       -5.4214877437
 H        -7.9568240033        3.0333769486       -5.5304653915
 H        -8.2779490527        1.4686904390       -4.9987548943
 H        -7.9679379485        1.0049995904       -2.0872204103
 H        -6.3713898119        1.8137846988       -1.6889926854
 H        -6.4957647612        0.7908500028       -3.1332101573
 H        -1.2926176430        6.1482234312       -6.1736260206
 H        -1.4373520305        5.8664240167       -4.4161927394
 H        -2.8500611927        5.6822706961       -5.4644427130
 H        -2.4079292607        4.1984201482       -7.7910856701
 H        -1.5846039137        2.6579875602       -7.3117443466
 H        -0.7232351777        4.1814441961       -7.6140113631
 Na      -12.5951416062        4.1906222320        2.0167045054
