117

 C         0.7982314555        3.4379050274       -5.8022288139
 C        -0.5332029449        3.1269292414       -5.2060687907
 O        -0.6035884547        2.3795395326       -4.2257942102
 C        -1.8140452287        3.9293961011       -5.7672428127
 C        -3.1269146847        3.2749641098       -5.0428099824
 O        -3.7847710102        2.4938791637       -5.6905586241
 C        -3.1967691182        3.5459813039       -3.5531522985
 C        -4.3752777318        2.8342365669       -2.9560072687
 C        -5.7163467118        3.4645764503       -3.2659543644
 O        -5.7301366236        4.6430935455       -3.4967522594
 C        -7.1276272937        2.6043070469       -3.1257321572
 C        -8.3080250048        3.4647968530       -2.5854959057
 O        -8.9345206327        3.1747611222       -1.5344082124
 C        -8.7394949764        4.6699998035       -3.4704177097
 C        -9.8378056865        5.5407657643       -2.9002134976
 C       -11.2411036566        5.2387803084       -3.3422388434
 O       -11.5672807009        4.4752526597       -4.2026322587
 C       -12.4062436367        5.9295446241       -2.4491242507
 C       -12.6260455768        5.0560769774       -1.1419991889
 O       -12.2179659972        5.4472341408       -0.0355783446
 C       -13.4726615176        3.7819688943       -1.3108324388
 C       -12.5447825883        2.5668945343       -1.1267130637
 C       -13.0915995316        1.2375329906       -0.5481507608
 O       -14.1985518105        0.8575874491       -0.7189609281
 C       -11.9336443956        0.5079637943        0.3413783624
 C       -11.5730759809        1.5746407204        1.6091360292
 O       -12.4500979713        2.2282384531        2.2048985556
 C       -10.1198812187        1.5255342370        2.1243616641
 C        -9.8124074766        2.6028049815        3.2591781471
 C       -10.4033534362        2.1830461016        4.5663933843
 O       -10.6811003764        1.0309271965        4.7811835163
 C       -10.5950365526        3.3093077876        5.7495610361
 C       -11.9049201958        3.9925500459        5.2724557943
 O       -11.9124806301        4.5847221479        4.1990929139
 C       -13.1413978590        3.7286812875        6.1054102553
 C       -14.4721830978        4.0158561158        5.4349734692
 C       -14.7200926434        5.5148919547        5.2832146423
 O       -14.1409042028        6.4192288502        5.7740380125
 C       -15.9243568031        5.8538487762        4.2283488789
 C       -15.0807025998        6.0380098581        2.9928417062
 O       -14.6327471881        5.0570583146        2.3884500114
 C       -14.9853579402        7.4362307644        2.4278935445
 C       -16.8645415127        4.5662725719        4.0695282458
 C       -16.7139539656        7.0329658080        4.7486230186
 C       -10.7597047939        2.6635087501        7.1503209926
 C        -9.3139864941        4.1620445395        5.7620540850
 C       -12.4774716782       -0.8264170103        0.8838652565
 C       -10.6958694900        0.3117318257       -0.5069521755
 C       -11.9586706553        7.4220390413       -2.0457372749
 C       -13.7461603003        6.0678122739       -3.2110972521
 C        -7.5019556854        2.0900887530       -4.5722154448
 C        -6.9035788601        1.4219010146       -2.1114622471
 C        -1.5442796625        5.3707438206       -5.4562158409
 C        -1.9135485447        3.7876883446       -7.2866892694
 H         0.7264019263        3.1960857927       -6.8333942438
 H         1.4916236667        2.8258021119       -5.3034351212
 H         1.1106508365        4.5060345658       -5.6590400828
 H        -3.2480418238        4.6141218081       -3.4321103120
 H        -2.2430180735        3.2305267295       -3.1714628698
 H        -4.2601029715        2.7050930798       -1.8468697146
 H        -4.3049723669        1.7455044519       -3.2733275479
 H        -9.0592358743        4.2735643969       -4.4523061368
 H        -7.8244725626        5.2637405649       -3.6181808788
 H        -9.6244357281        6.5837993725       -3.1801711766
 H        -9.7915484481        5.5521375721       -1.8108174480
 H       -13.8161871232        3.8010248420       -2.3627404840
 H       -14.3812422047        3.8000805088       -0.6211679504
 H       -11.6173568223        2.8910734667       -0.7000751683
 H       -12.2651602406        2.2544016261       -2.1002706290
 H        -9.3911503265        1.6323297351        1.3231683354
 H        -9.8812296192        0.5081020878        2.5161145805
 H       -10.1264686999        3.6211245370        2.8819747980
 H        -8.7526873195        2.5640628562        3.4210699503
 H       -13.0179986726        4.3343553349        7.0195211892
 H       -13.1869363853        2.6974041310        6.4728192202
 H       -15.2872226512        3.5985156892        6.0324555237
 H       -14.6576307433        3.4139124798        4.5360206926
 H       -16.0239704765        7.8031974295        2.3193691449
 H       -14.5957377398        7.2988906705        1.4144271056
 H       -14.3105558229        8.1672772051        2.9144828723
 H       -16.9545774268        4.0978267936        5.0877463929
 H       -16.3248163493        3.9428502779        3.3469254831
 H       -17.8296250049        4.8749914110        3.7445388245
 H       -17.5729410293        6.9343237772        4.0795604278
 H       -16.1117837461        7.9251823391        4.6937165198
 H       -16.9229617565        6.8426022663        5.7899081944
 H       -11.1365497563        3.3744292234        7.8508313275
 H        -9.8300884580        2.2691451694        7.4859404747
 H       -11.4462135481        1.7149171609        7.1425682523
 H        -9.0915039471        4.6758052562        4.8019295861
 H        -8.4020245924        3.6380058366        6.1042828068
 H        -9.4939708831        4.9982768676        6.3686757787
 H       -11.8097351738       -1.1575666268        1.7261393924
 H       -12.4401212820       -1.5251425687        0.1108860645
 H       -13.5125461375       -0.6874879441        1.2307755924
 H       -10.2563352139        1.2104555300       -0.9158871470
 H       -10.9214436910       -0.3921110047       -1.3286063227
 H        -9.8649719838       -0.1916760620        0.0023696386
 H       -12.7419407048        8.0208014320       -1.7457506811
 H       -11.4074457499        7.9027181114       -2.8099364043
 H       -11.2929011876        7.3803536574       -1.1771626284
 H       -14.5734057166        6.2204848622       -2.6027711747
 H       -13.8767441544        5.1987818017       -3.8333571099
 H       -13.6277525862        6.9907356059       -3.8229637678
 H        -6.8075504758        1.2953222866       -5.0343125649
 H        -7.3388671165        2.9183969375       -5.2593088812
 H        -8.4809894933        1.7333081893       -4.7617643748
 H        -7.8277935177        0.8621639975       -2.1312701545
 H        -6.7008824320        1.7775747443       -1.1117063658
 H        -6.0769254837        0.8617999524       -2.4505346093
 H        -0.5375049279        5.5434789358       -5.8662928798
 H        -1.5715871997        5.6551274776       -4.4175436694
 H        -2.1762408860        6.0603265378       -6.0111534008
 H        -2.7373598293        4.3637676092       -7.6804639584
 H        -2.0223183589        2.7105140652       -7.6047698879
 H        -0.9816122736        4.1169829342       -7.7250878733
 Na      -12.5571160270        4.5376477141        1.9909825520
