117

 C         0.7549885860        3.4355827616       -6.0090650823
 C        -0.5170693839        3.0207065322       -5.2858659585
 O        -0.5842475217        2.3489137952       -4.2432481850
 C        -1.7311521501        3.8494011856       -5.8070760005
 C        -3.0185773403        3.2593955947       -5.0194631870
 O        -3.8185137753        2.5813327675       -5.6030510220
 C        -3.2305014238        3.5440777871       -3.5232313866
 C        -4.3788219004        2.6447772735       -2.9329984233
 C        -5.6895847482        3.4131656377       -3.1009449186
 O        -5.7601812996        4.5851219241       -3.4123237551
 C        -7.0539755150        2.6508948669       -3.0193559465
 C        -8.3109411385        3.4337579474       -2.6162105134
 O        -8.9468176825        3.2040214412       -1.5994773801
 C        -8.7908344311        4.6281319481       -3.5635185223
 C        -9.8776439313        5.4774307939       -2.8523550093
 C       -11.2437031821        5.1199822670       -3.2814042343
 O       -11.5200464190        4.4526767736       -4.2590204603
 C       -12.4283015432        5.8895372132       -2.4660578188
 C       -12.7164420775        5.1461621046       -1.1452666248
 O       -12.0941307597        5.4388653203       -0.1282461898
 C       -13.4740951102        3.7857716762       -1.2000326851
 C       -12.4827110140        2.6359619562       -1.0929833997
 C       -13.0521564445        1.3513998709       -0.4482218798
 O       -14.1736639964        0.8593108755       -0.6432294799
 C       -11.9886420700        0.5616361195        0.4262815584
 C       -11.6250641617        1.4661515876        1.5753516245
 O       -12.4263578949        2.3472158689        1.9265376785
 C       -10.1627618830        1.5800925797        1.9733744554
 C        -9.8913741457        2.6385696747        3.1585364737
 C       -10.3927006269        2.1901321720        4.5951765347
 O       -10.6371894666        1.0335185994        4.8458613813
 C       -10.5874976041        3.2953419995        5.7311049971
 C       -11.8977440840        4.0385215605        5.2954604107
 O       -11.8302599390        4.6651245209        4.2261718708
 C       -13.1509720819        3.7980311712        6.1506333397
 C       -14.4570508319        4.1251809536        5.4751129475
 C       -14.7792165336        5.5417199470        5.2390087170
 O       -14.0420024722        6.4453711100        5.6608709882
 C       -15.9690959378        5.8642645697        4.2400397595
 C       -15.2274846461        6.0493078888        2.8652127803
 O       -14.6066494234        5.0588754761        2.4629364546
 C       -15.0296079320        7.4582758210        2.3468625946
 C       -16.8616791073        4.5039661569        4.0994977786
 C       -16.8454740928        6.9911644236        4.8525488965
 C       -10.7752645008        2.6651956077        7.1001745607
 C        -9.3429191251        4.1970686852        5.8454657045
 C       -12.5182789423       -0.8000415206        0.8592218219
 C       -10.7387010942        0.3586259437       -0.4496121942
 C       -11.8180421549        7.2823450173       -2.1403312930
 C       -13.7136838858        6.0504355237       -3.3058969891
 C        -7.3077908561        2.0916872072       -4.4573340721
 C        -6.9264826034        1.4358078084       -1.9964223310
 C        -1.4756241284        5.3704242376       -5.4419157065
 C        -2.0828357226        3.7248178478       -7.2919888655
 H         0.4826910069        3.7524499323       -6.9837331978
 H         1.3807243971        2.5153716651       -6.0671438006
 H         1.3029414938        4.1917402473       -5.4575987760
 H        -3.4879975406        4.5818904551       -3.4380753711
 H        -2.2858026020        3.3821134693       -3.0326625965
 H        -4.2509752904        2.5810417908       -1.8310299386
 H        -4.2330752712        1.5767513471       -3.1801668193
 H        -9.2884973113        4.1874783942       -4.4344664069
 H        -7.9572362773        5.2199005835       -3.9047850844
 H        -9.7487619237        6.4932416476       -3.1207600334
 H        -9.7592665829        5.4744524499       -1.7002149785
 H       -14.2192582487        3.7032989821       -1.9839977427
 H       -13.9825340896        3.8195380843       -0.2045957474
 H       -11.7175892179        3.0176906399       -0.4037047647
 H       -11.9395063993        2.4026946756       -2.0207498640
 H        -9.5193333841        1.8332972555        1.0688558945
 H        -9.7142416265        0.6468130366        2.2839472749
 H       -10.3287542783        3.6094961872        2.8782382724
 H        -8.8444380346        2.7056548899        3.2026158830
 H       -12.9786685420        4.3029875945        7.0976791661
 H       -13.2481346558        2.6849435471        6.4053448751
 H       -15.3411879654        3.6983341958        6.0233615379
 H       -14.5905696108        3.4910176672        4.5675826599
 H       -15.9824582893        8.0298508890        2.2849780584
 H       -14.5127931219        7.4907045273        1.4118718316
 H       -14.3265239853        7.8817949795        3.0149422853
 H       -17.2380337915        4.2327787557        5.1050820694
 H       -16.2470057468        3.7214770470        3.6033631226
 H       -17.6936353224        4.8307716887        3.5746679091
 H       -17.6711969316        6.8811629486        4.1252413441
 H       -16.2574954772        7.8990341018        4.7429336435
 H       -17.0924928374        6.7661771886        5.8978061213
 H       -10.8911558272        3.4939584868        7.8888356187
 H        -9.9242010771        1.9718670004        7.3753453642
 H       -11.6011982034        2.0354173179        7.1277871265
 H        -8.9873103961        4.6008474993        4.9262414020
 H        -8.5171242888        3.6808070415        6.3085663454
 H        -9.5880804999        5.1020197717        6.4306847812
 H       -11.7369282675       -1.2509181995        1.4043911422
 H       -12.6929401370       -1.3622128066       -0.0184328818
 H       -13.3908892078       -0.7096004897        1.4715661970
 H       -10.2148411015        1.2051336219       -0.7796151401
 H       -11.1307759097       -0.2754855270       -1.3145738265
 H        -9.9793439184       -0.3276795314       -0.0513593085
 H       -12.5938144041        8.0461519094       -1.8920363194
 H       -11.1776932156        7.6728584479       -2.9916013850
 H       -11.1386653717        7.2495049040       -1.2738718500
 H       -14.6835282153        6.1237656215       -2.7565723066
 H       -13.6883364187        5.2550706541       -4.0314640816
 H       -13.6018843188        7.0192456985       -3.8122186946
 H        -6.7313876469        1.2289089283       -4.8675856241
 H        -7.1658959822        2.8491187676       -5.2345372501
 H        -8.3772965295        1.8023789577       -4.5464497359
 H        -7.8114478961        0.8171780705       -2.1349314636
 H        -6.9022741894        1.7817590402       -0.9985865998
 H        -5.9990974971        0.9299383720       -2.2122314236
 H        -0.4729369044        5.7147912417       -5.8097617378
 H        -1.6419288200        5.6266261675       -4.3542268440
 H        -2.1860789938        5.9694724850       -6.0042155805
 H        -3.0836379301        4.1962175821       -7.5357095247
 H        -2.1479062197        2.6591202078       -7.5185193257
 H        -1.2774212530        4.0844291424       -7.9048503972
 Na      -12.5734074425        4.5422964147        2.0261741107
