117

 C         0.6025207413        3.1295676050       -6.5554498407
 C        -0.4522826762        2.9217401326       -5.4616352946
 O        -0.3728101706        2.2234852414       -4.4529483122
 C        -1.8787869328        3.7365726753       -5.7163643554
 C        -3.0741011795        3.1611924990       -4.9059034019
 O        -4.0130454417        2.7103417372       -5.5070594270
 C        -3.0659929463        3.3865787346       -3.3209461160
 C        -4.3030079476        2.7848922987       -2.6278431692
 C        -5.7309670451        3.3747215075       -2.8097175832
 O        -5.8542156079        4.5627072806       -2.8946832455
 C        -7.0389497110        2.4152841885       -2.8629281149
 C        -8.2835741762        3.2084384270       -2.6072503835
 O        -8.8987049219        3.0263074895       -1.5432478523
 C        -8.7365722827        4.3071121337       -3.5521842719
 C        -9.7302696111        5.3458253434       -3.0262076376
 C       -11.1677021077        5.0516202703       -3.2493875047
 O       -11.4935655650        4.2050954828       -4.0659096722
 C       -12.3490721100        5.9121500790       -2.5120211348
 C       -12.4841900966        5.1863621682       -1.1542902833
 O       -11.9765250140        5.7090839758       -0.1211407291
 C       -13.3313727267        3.9131123322       -1.1194427143
 C       -12.4681681814        2.6587708918       -1.3800523142
 C       -12.9394787283        1.4717387384       -0.5864854188
 O       -14.1369839134        1.1432118954       -0.5473537786
 C       -11.9407178131        0.6915831194        0.2728193029
 C       -11.4871041886        1.6662109894        1.3386935452
 O       -12.3438654936        2.4625922108        1.8325639392
 C       -10.0697324255        1.5107375341        1.9688014213
 C        -9.9138543056        2.6887863304        3.0902887533
 C       -10.3520975902        2.2741774964        4.5330344133
 O       -10.4716307945        1.0838576525        4.7272106224
 C       -10.5355003016        3.2714209938        5.7727614896
 C       -11.8732418797        4.0943803404        5.4793324232
 O       -11.8399436297        4.7140726312        4.4126008254
 C       -13.1624141647        4.1266157277        6.3448110249
 C       -14.4200204348        4.1767598538        5.4797457005
 C       -14.8724048797        5.6025810241        5.1355104166
 O       -14.1800157803        6.5802498721        5.4588472793
 C       -16.1323684833        5.8338991067        4.1855943976
 C       -15.5012066228        6.0315814578        2.8391098814
 O       -14.9084138343        5.1403369578        2.2242486251
 C       -15.2901269172        7.4725953720        2.4647496337
 C       -17.1701823460        4.6276786274        4.0993463151
 C       -16.8498229518        7.1614995370        4.7491657074
 C       -10.4599931350        2.5337506724        7.1153629359
 C        -9.3862605155        4.2742723476        5.6296733993
 C       -12.6169599007       -0.5140155944        1.0420511257
 C       -10.7657321051        0.0837177750       -0.5270253393
 C       -12.1030466087        7.4184018657       -2.2569899666
 C       -13.6543635581        5.7283786607       -3.3652781381
 C        -7.0041059908        1.6707068996       -4.2642030952
 C        -6.8073509671        1.3809357495       -1.8265483693
 C        -1.7510718590        5.2667935555       -5.4376321120
 C        -2.1541096222        3.6410268229       -7.3070287001
 H         1.1893796755        3.9879586959       -6.3077143719
 H         0.0390612075        3.3032515779       -7.4529344997
 H         1.2349059887        2.2061501822       -6.7075301449
 H        -3.0948331582        4.4837726184       -3.1914042259
 H        -2.1206813035        2.9834504715       -2.9293107107
 H        -4.0109509337        2.7135205175       -1.5669774403
 H        -4.2209010529        1.7030115607       -2.8705376344
 H        -9.2635719645        3.7444422672       -4.3598558564
 H        -7.8502036261        4.7828937019       -3.9956822919
 H        -9.5582904455        6.2028698923       -3.6763245702
 H        -9.5044243379        5.7583658145       -2.0498128309
 H       -14.2443758296        3.9389647394       -1.7314035369
 H       -13.8205737566        3.8660561529       -0.0896163524
 H       -11.4494010395        2.8927769880       -1.0871049570
 H       -12.4741782630        2.4131196670       -2.4189153755
 H        -9.2483571985        1.4233941306        1.2857965702
 H       -10.0449600190        0.5546308272        2.4983202860
 H       -10.5302286621        3.5779472697        2.6772416031
 H        -8.8755397437        2.9924342798        3.1388713014
 H       -13.2173377700        5.0456921272        6.8951995130
 H       -13.1737096731        3.2919234936        7.0423979446
 H       -15.2702633753        3.6962390723        5.9222282377
 H       -14.3313167836        3.6257116512        4.5487843216
 H       -16.2987651313        7.8544460818        2.1071535074
 H       -14.5184252395        7.6182284002        1.7090354263
 H       -14.9115856954        8.0251686204        3.3388619848
 H       -17.4295382417        4.3834059838        5.1634287316
 H       -16.4622822241        3.8847155697        3.7500693108
 H       -18.0277284204        4.8600997031        3.5922409183
 H       -17.3803041892        7.6285137043        3.9154357095
 H       -16.1409246758        7.8251073410        5.1733501979
 H       -17.5035215598        6.6573515066        5.3725725241
 H       -10.7992933085        3.0869515210        7.9868938223
 H        -9.4133960411        2.3850064133        7.2991909580
 H       -10.9169465748        1.5859816091        7.0100456196
 H        -9.5268972327        4.9885581343        4.7882773399
 H        -8.4101634247        3.7692080592        5.4300962842
 H        -9.2325652804        4.8208009451        6.5418008593
 H       -11.8459063036       -1.3014981622        1.3320500638
 H       -13.3750944385       -0.9435365981        0.4102474720
 H       -13.0077680832       -0.1028044879        2.0303705664
 H       -10.2020814030        0.7936406381       -1.0303238963
 H       -11.1543898786       -0.7308516597       -1.1969197881
 H       -10.0643441871       -0.4919968231        0.0765620192
 H       -12.8050674888        7.7287339367       -1.5623826759
 H       -12.2042575317        8.0627550914       -3.0865072241
 H       -11.1335413732        7.5816610156       -1.8719984443
 H       -14.3511692150        6.3505673355       -2.8898483480
 H       -13.9436355549        4.7396138607       -3.6169670180
 H       -13.4676670055        6.2762067393       -4.3171025281
 H        -5.9450228147        1.3473504439       -4.4856589813
 H        -7.1853892693        2.3027032919       -5.0901034962
 H        -7.6868551953        0.8959527748       -4.4006430725
 H        -7.7667155894        0.8102534094       -1.7851056020
 H        -6.6259223100        1.8291175394       -0.8511027800
 H        -6.0078449257        0.7232521927       -2.1618086870
 H        -1.3730790622        5.8124813270       -6.2865743438
 H        -1.1607631962        5.4463932135       -4.5683554547
 H        -2.6846747188        5.6973190478       -5.2344982982
 H        -3.1269933771        4.0733266942       -7.4626438842
 H        -2.2383759833        2.5771718166       -7.5953285257
 H        -1.4210758554        4.0629138803       -7.9221892975
 Na      -12.5497325637        4.8503141153        2.0214501771
