117

 C         0.5365941988        3.0486631255       -6.5245498014
 C        -0.6280326271        2.9008151275       -5.5430508392
 O        -0.3766724160        2.3019965971       -4.5435548152
 C        -1.9558567203        3.6861547955       -5.7537678926
 C        -3.1106950506        3.1741245283       -4.9179923366
 O        -4.0783332727        2.6589409197       -5.4636217852
 C        -3.0666804110        3.3323393739       -3.3723715924
 C        -4.2701594289        2.7316746014       -2.5104836397
 C        -5.6184467162        3.3623784342       -2.8046438607
 O        -5.8772492847        4.5624841630       -2.7078058716
 C        -6.8197164440        2.3302190726       -2.8287200811
 C        -8.2646085988        3.1865755857       -2.5115969553
 O        -8.9142630848        2.9145821830       -1.5519497387
 C        -8.6956442968        4.2762297228       -3.6214869055
 C        -9.6388259611        5.4370893518       -3.0946065977
 C       -11.1532505238        5.0939425643       -3.2506656531
 O       -11.5268546016        4.1399380054       -3.8910963776
 C       -12.3550687287        5.8903587989       -2.4991903716
 C       -12.5353962807        5.1960697371       -1.1240722481
 O       -12.0499545847        5.7368225337       -0.1511929196
 C       -13.1824680888        3.8525322263       -1.0345256745
 C       -12.3957954715        2.6229333350       -1.5412020764
 C       -12.9529249260        1.4300264813       -0.6530954604
 O       -14.1348494035        1.2299388470       -0.6234232521
 C       -11.9309622228        0.7111631935        0.3582999000
 C       -11.4654780374        1.7114431574        1.4204936302
 O       -12.1864284584        2.6158199323        1.7917360466
 C       -10.0941686422        1.5996291126        2.0419189413
 C        -9.7883879708        2.7263459435        3.0719773518
 C       -10.3050508207        2.2130063604        4.4236650468
 O       -10.4944691629        1.0728834387        4.7303715815
 C       -10.5100577014        3.3513210523        5.6728834264
 C       -11.8939601581        4.0916913682        5.3762964801
 O       -12.0170294688        4.6878019337        4.3030358012
 C       -13.0783956896        4.1416046724        6.3227430733
 C       -14.4092742642        4.1932877001        5.4948502520
 C       -14.8869365447        5.5965473747        5.0953681493
 O       -14.2838150983        6.5800997247        5.5318629610
 C       -16.1462584631        5.7681249048        4.2048408493
 C       -15.4371151880        6.1111989715        2.8181191611
 O       -14.9831693727        5.1882607729        2.1810597870
 C       -15.2529436484        7.5855849196        2.3336000806
 C       -17.1766081420        4.6132023899        4.1696734069
 C       -16.8918123298        7.1163520679        4.7327560900
 C       -10.5124137789        2.6272158381        7.0736446027
 C        -9.2527186283        4.2807047104        5.5843347507
 C       -12.7244946363       -0.4476084517        1.1339449213
 C       -10.7864246157        0.1301524684       -0.5420800289
 C       -11.9950205762        7.3578258636       -2.4519197153
 C       -13.6505101675        5.6872266569       -3.3211305883
 C        -7.0336084947        1.6676605459       -4.2306326384
 C        -6.6511526897        1.2464228733       -1.6929156588
 C        -1.6502641202        5.1762304965       -5.4146391238
 C        -2.3870994199        3.6359460715       -7.2313519279
 H         1.4327053048        3.4640083091       -6.1028363261
 H         0.1612500871        3.5180997513       -7.4465672280
 H         0.6869825360        2.0530956772       -6.7619099142
 H        -3.0678536318        4.3613264478       -3.0981722858
 H        -2.1096519575        2.8733978819       -3.1748911821
 H        -3.9285468514        2.9612764099       -1.4595840579
 H        -4.2432400335        1.6118285569       -2.5059827252
 H        -9.2882623744        3.6290077199       -4.2987111684
 H        -7.8248398302        4.6267233401       -4.1703269000
 H        -9.3814981231        6.3446345158       -3.5344421748
 H        -9.4391214449        5.6108829121       -1.9766365469
 H       -14.1781288577        3.8346225043       -1.5200190774
 H       -13.5551456326        3.6716290940        0.0175429481
 H       -11.3493958815        2.7663209460       -1.5938336744
 H       -12.8019744271        2.3936051126       -2.5062888960
 H        -9.3476963212        1.6532713664        1.1930718913
 H        -9.8739880013        0.6472730911        2.4922825216
 H       -10.2393816425        3.6780457194        2.7119832918
 H        -8.7068264320        2.8358004113        3.1369459856
 H       -13.0962737941        5.0897228593        6.8252731337
 H       -13.0420031482        3.3064108710        7.0726839045
 H       -15.2786052298        3.8739429328        6.1218623129
 H       -14.4722152563        3.5040117197        4.6314816978
 H       -16.2662072333        7.8967070812        1.9331802761
 H       -14.5177037946        7.6074317752        1.5053753747
 H       -14.8600455192        8.2810743978        3.0700359759
 H       -17.1980759503        4.3512952555        5.2171101853
 H       -16.6573062408        3.8227972931        3.6294736011
 H       -18.1767074375        4.9517172505        3.8812118504
 H       -17.4078262244        7.4996539988        3.8670765574
 H       -16.0657578735        7.7786329777        4.8632428854
 H       -17.5620209326        6.8326273074        5.5384438213
 H       -10.8659866780        3.3161167305        7.8891909214
 H        -9.4419536486        2.4823355976        7.3751465488
 H       -11.0414785867        1.7495172485        7.0222160276
 H        -9.2968953960        5.0612702131        4.8485810383
 H        -8.3228781484        3.7545922572        5.4064164836
 H        -9.1344739361        4.7376416707        6.6210955605
 H       -12.0459298894       -1.1004231774        1.6366809717
 H       -13.3631115569       -1.0289400733        0.3922694710
 H       -13.2996793251        0.0536403979        1.9217088170
 H       -10.4492448922        0.8976535857       -1.2182666597
 H       -11.2107890557       -0.7183300526       -1.1108089068
 H        -9.9084733812       -0.3159903788       -0.0809186812
 H       -12.7854724349        7.8269697576       -1.9012161735
 H       -12.0209936708        7.8549918234       -3.3749293800
 H       -11.1007264179        7.5623079511       -2.0184939204
 H       -14.4123945571        6.3446104481       -2.8702118102
 H       -13.8830036413        4.6747939463       -3.4445828480
 H       -13.4934677252        6.0433035504       -4.2896938356
 H        -6.1518794659        1.2560940855       -4.6352039368
 H        -7.4720202281        2.2377686541       -5.0625399495
 H        -7.7945864689        0.8548942315       -4.1058372414
 H        -7.5892480605        0.6811348450       -1.6192273288
 H        -6.5109158372        1.7918397219       -0.7887135443
 H        -5.8351381028        0.5239506502       -1.8964916047
 H        -1.1590576378        5.7460951029       -6.1709106555
 H        -1.1393407709        5.2613436266       -4.4618049931
 H        -2.5812463303        5.6498028273       -5.3028335482
 H        -3.4798214259        3.8756303887       -7.2360190442
 H        -2.2795766256        2.6535843919       -7.6074313312
 H        -1.8135980663        4.2925968212       -7.8602542901
 Na      -12.6094551032        4.9171094227        2.0755478118
