117

 C        -0.3437056579        2.2084212078       -6.9072962966
 C        -1.1001137389        2.7862699411       -5.6942580067
 O        -0.8267182402        2.4017067943       -4.5654844480
 C        -2.4105277638        3.6659489046       -5.8329167231
 C        -3.4452644529        3.0888988415       -4.7390990682
 O        -4.4080280016        2.4485153222       -5.0520848000
 C        -3.1347385241        3.3671245629       -3.2316382002
 C        -4.0864024182        2.4606992180       -2.2993773823
 C        -5.5194480807        3.0553006358       -2.3260972929
 O        -5.7218421597        4.2486238554       -2.2173632093
 C        -6.8407624576        2.0801072558       -2.4304320734
 C        -8.1257728078        2.8467862340       -2.2075653796
 O        -8.8015288562        2.7224892073       -1.1712410277
 C        -8.4389652148        3.9725333744       -3.2653475979
 C        -9.3697313105        5.1284154454       -2.8210995123
 C       -10.7684804537        4.8264164320       -3.1802224290
 O       -11.0640288490        3.7720344429       -3.7015115553
 C       -12.0420466282        5.8127209193       -2.7754018750
 C       -12.5571356179        5.2850552609       -1.4338456434
 O       -12.2569332809        5.8698231080       -0.3787235546
 C       -13.3390267487        3.9803152834       -1.3409303848
 C       -12.3850420488        2.7448253860       -1.2510936372
 C       -12.9237057089        1.4964998401       -0.5046740280
 O       -13.8588456318        0.8190219480       -0.8595600553
 C       -11.9549341958        0.8565069307        0.5795966529
 C       -11.2355949569        1.9612291891        1.4128688548
 O       -11.8327219672        3.0322410089        1.6798224282
 C        -9.7633202641        1.7806659323        1.8108737766
 C        -9.4524611892        2.8590118383        2.8937301886
 C       -10.3265992220        2.6293389181        4.1750729809
 O       -10.7703037369        1.5426782600        4.4100863293
 C       -10.4505109377        3.7086534912        5.3687450017
 C       -11.8071052638        4.3249186037        5.0792374252
 O       -11.8898149761        4.8209245935        3.9608679409
 C       -13.1590258543        4.1064388428        5.9455134740
 C       -14.5429257225        4.1835195578        5.1219332672
 C       -15.0904901964        5.5945908799        5.1748665170
 O       -14.4765367017        6.5092302191        5.7382883818
 C       -16.2890546243        6.0379749621        4.2288444954
 C       -15.4431687400        6.2012879789        2.9067302101
 O       -14.9659902768        5.2279514147        2.2912878939
 C       -15.1998404840        7.6357563323        2.4829711304
 C       -17.2758025020        4.8244298273        4.1155091449
 C       -16.9657747713        7.2970463749        4.7101993383
 C       -10.3989134107        2.9498318500        6.7477474121
 C        -9.2227009765        4.6897019802        5.2443971045
 C       -12.7078443173       -0.0577076657        1.5909133593
 C       -10.9401726165       -0.0210632931       -0.2507505351
 C       -11.7298842079        7.3314806691       -2.5796267927
 C       -13.0222156403        5.6302274495       -3.9697058783
 C        -6.8441903623        1.2861987874       -3.8239255859
 C        -6.6408124291        0.9344147593       -1.4085579282
 C        -1.9664162583        5.0780774457       -5.3132433078
 C        -3.0047647305        3.8976455691       -7.2486772915
 H         0.3560063238        1.4566636290       -6.7341305466
 H        -0.0079406307        3.1051537536       -7.3586888387
 H        -1.1620231317        1.8249788897       -7.5463349253
 H        -3.3786390678        4.4218328952       -3.1412857625
 H        -2.0849959214        3.1488032386       -3.1575398846
 H        -3.7248672261        2.6140952587       -1.2871493244
 H        -3.9316916724        1.4598782147       -2.6644821688
 H        -8.8503635496        3.5668632146       -4.1824201606
 H        -7.4472924314        4.3566042879       -3.5192606840
 H        -9.0240246383        6.0705835934       -3.4021541410
 H        -9.2893107063        5.3744807614       -1.7881271479
 H       -14.0750006674        3.9219893235       -2.1011041383
 H       -13.8281299490        3.9831530306       -0.3682994833
 H       -11.4226307684        2.9468058477       -0.7348296310
 H       -12.0603913201        2.3866021689       -2.2321632873
 H        -9.1535465728        1.9132076538        0.9070693417
 H        -9.4905054603        0.7500392950        2.2025702579
 H        -9.7036972869        3.8144744301        2.4351490827
 H        -8.4097204234        2.9525172951        3.0601210633
 H       -13.1894759120        4.9849771013        6.6691169070
 H       -13.1821244063        3.1841027061        6.5122488398
 H       -15.2338008284        3.5129248320        5.6890465852
 H       -14.4253045768        3.8951938953        4.0402004520
 H       -16.1611593387        8.1070872504        2.1654254392
 H       -14.5094315157        7.7299901243        1.6574600014
 H       -14.8419814110        8.2065619459        3.3565531718
 H       -17.3902532803        4.4047737470        5.1627984142
 H       -16.7430214081        4.1565845508        3.4302772351
 H       -18.1812940099        5.1204982238        3.6786586960
 H       -17.5112899400        7.8105126660        3.8615372107
 H       -16.2248974831        7.8575034990        5.2883533744
 H       -17.6704113722        6.7868072388        5.3382338061
 H       -10.9060196459        3.5995227919        7.5608911519
 H        -9.3140758297        2.6560057132        6.9250285556
 H       -10.9103946944        2.0760916147        6.6144436101
 H        -9.3197158711        5.4252963602        4.4050094637
 H        -8.3923514558        4.0055023270        4.9519795724
 H        -8.9364761444        5.1808276081        6.1372781244
 H       -12.0713147222       -0.8576259938        1.9699698844
 H       -13.5393024481       -0.4557960012        1.0894117832
 H       -13.1491965103        0.5363266788        2.3874331626
 H       -10.6106502124        0.3850734190       -1.1594815529
 H       -11.4935791110       -0.9528499591       -0.5878373316
 H       -10.1212241314       -0.2608885468        0.4358327640
 H       -12.5933714446        7.8563704476       -2.2103977271
 H       -11.2635475309        7.8478863493       -3.4372295843
 H       -11.0881391384        7.4593769684       -1.7376990974
 H       -13.7722903063        6.3650941212       -3.9041304945
 H       -13.5554019886        4.7079676795       -3.9124665494
 H       -12.4002815268        5.7332754684       -4.8860581169
 H        -5.9671084646        0.5715171573       -4.0393352332
 H        -7.0257669136        2.0122844958       -4.6220038942
 H        -7.7175532859        0.6449525220       -3.8448357849
 H        -7.3306656344        0.1094750636       -1.6424041978
 H        -6.8890885403        1.3258610438       -0.4223600607
 H        -5.6441617590        0.5289442914       -1.4117913838
 H        -1.4091809758        5.6925305446       -6.0140605442
 H        -1.2617534547        5.0059171129       -4.5103300762
 H        -2.8206915296        5.6047505536       -4.9427967894
 H        -3.8849448049        4.4816453293       -7.1123318433
 H        -3.2662500606        2.9372885957       -7.7606374816
 H        -2.3795323186        4.5533813040       -7.8142020728
 Na      -12.5391229055        5.0981140493        1.8440385974
