117

 C        -6.4024522006        0.0680726788       10.8618625528
 C        -5.5932483656        1.1696397999       10.2620708335
 O        -5.5150000014        2.2609393417       10.7769780952
 C        -4.5297280134        0.7710828508        9.0715323424
 C        -5.3028391807        0.4014287018        7.7091463350
 O        -5.7840084810       -0.6962017840        7.5915198679
 C        -5.7725440010        1.5506614539        6.8268672728
 C        -6.8857677657        1.1460526922        5.8585504493
 C        -7.2153751817        2.1314133250        4.7172398428
 O        -6.8825789216        3.2935345557        4.6539707449
 C        -8.0718765018        1.4933777394        3.5095443606
 C        -9.3616908599        2.2140290112        3.2374554258
 O       -10.3758107951        1.7315002165        3.6889668693
 C        -9.3211471307        3.5122801040        2.3437310731
 C       -10.6818067889        4.1541947084        2.4514386738
 C       -10.8293903629        5.2262105268        1.3999794051
 O        -9.9993616331        5.2676741305        0.4819546435
 C       -12.1203550314        6.2557146185        1.3097559524
 C       -13.1397120260        5.7011320471        0.2134821611
 O       -13.0813988098        5.8969318089       -1.0146407793
 C       -14.2777446544        4.7911647450        0.6417816652
 C       -14.4426332240        3.5244644882       -0.3062609701
 C       -13.0488699443        2.8389962199       -0.7308208172
 O       -12.0173388064        3.2077956338       -0.2164931146
 C       -13.0254947163        1.8152435715       -1.9199271483
 C       -12.3860042824        2.5622230878       -3.1083856066
 O       -11.5162866404        3.3514906691       -2.9350442532
 C       -12.7545200129        2.1908830050       -4.5427643548
 C       -11.9957183862        3.1541530703       -5.4562395975
 C       -12.2651939331        2.8740260245       -6.9556210296
 O       -13.1986245080        2.1111964792       -7.1688043328
 C       -11.3948399659        3.6670674584       -7.9420450873
 C       -10.6936502854        4.9832684280       -7.2266726486
 O        -9.5370312046        4.7879445017       -6.8146338584
 C       -11.2876258112        6.2949264624       -7.0694001920
 C       -10.3817177015        7.3171147142       -6.3860205004
 C       -10.0780109013        7.0102764414       -4.9322752055
 O       -10.9332371929        6.5544319915       -4.1634571634
 C        -8.4930020947        7.3714680333       -4.4180026502
 C        -8.0050074914        5.9207617747       -3.9043098746
 O        -8.5061520110        5.5163745242       -2.8904183470
 C        -6.8318139949        5.1716388632       -4.5473597679
 C        -7.5692596586        8.0101901082       -5.4576154315
 C        -8.5771139938        8.3672712322       -3.2232977532
 C       -10.2359208658        2.7373166622       -8.3276450029
 C       -12.2741295443        4.0567630761       -9.1172505077
 C       -12.0934193326        0.7696255593       -1.3406432033
 C       -14.3634771444        1.1021832044       -2.1487393702
 C       -12.6990692748        6.3399432865        2.7817200729
 C       -11.7013699422        7.7819504366        0.9608245880
 C        -7.1220094353        1.6298165128        2.3257210472
 C        -8.3739875845       -0.0344949021        3.6131690112
 C        -3.5326307822        1.8786254184        8.9097743913
 C        -3.7195197984       -0.4429882937        9.4408509181
 H        -6.6446828125       -0.6565150303       10.0572983310
 H        -7.2418142279        0.3589503003       11.3956677333
 H        -5.8825618617       -0.4714782936       11.6341319597
 H        -4.9820818005        2.0311020022        6.3672976700
 H        -6.1679838794        2.2996548866        7.4829164154
 H        -7.7748828403        1.0113184829        6.4222675829
 H        -6.6066372287        0.2177219004        5.3653898619
 H        -9.0883698411        3.1008777497        1.3924031570
 H        -8.5391952447        4.1419370064        2.6760540148
 H       -10.7951505285        4.6145869794        3.5029807365
 H       -11.4437172384        3.4042460698        2.2667972853
 H       -15.1984081181        5.4523958242        0.4854159004
 H       -14.2233562860        4.4581577443        1.6671798427
 H       -14.8833901476        3.9129239107       -1.2218417814
 H       -15.0095703746        2.7235385157        0.2664933219
 H       -13.8625653426        2.2273027703       -4.7658161043
 H       -12.3083510092        1.1917594615       -4.7103003236
 H       -10.8923645529        3.1261138909       -5.2464609985
 H       -12.2461072145        4.2377111177       -5.1769146995
 H       -12.1577155577        6.2724268816       -6.4203259471
 H       -11.7161966778        6.7403575233       -7.9779940353
 H       -10.8783220054        8.2563957672       -6.3985422360
 H        -9.4394248858        7.3840814805       -6.9408156875
 H        -5.7989627521        5.5414594498       -4.3148844294
 H        -6.8290114731        5.3159920591       -5.6178456673
 H        -6.9680403882        4.0833216448       -4.3109457334
 H        -7.8041524278        8.9680019164       -5.6991816041
 H        -7.4895328434        7.3889994367       -6.3847238903
 H        -6.5650829333        8.1134265792       -4.9111762152
 H        -9.3243156274        8.1777108889       -2.4523872735
 H        -8.6497521572        9.3564142043       -3.5396725352
 H        -7.6401108232        8.2890007512       -2.7209149700
 H       -10.6812931345        1.7153007280       -8.6080057036
 H        -9.4227778164        2.6422795885       -7.6199045617
 H        -9.7121739642        3.1241701121       -9.1666523711
 H       -12.7375913732        3.2346189402       -9.7057531521
 H       -11.6598455510        4.7314099294       -9.7084851175
 H       -13.2161069879        4.4473553212       -8.7803480452
 H       -12.5171361053        0.3179838719       -0.4489265661
 H       -11.1207201466        1.2089065668       -1.1164596894
 H       -11.9801151285       -0.0897221944       -2.0279110839
 H       -14.4089953077        0.1526478673       -1.5377708760
 H       -14.2719545413        0.6452806197       -3.0968151027
 H       -15.1800629413        1.7418610433       -2.0728235041
 H       -13.5462467365        6.9488069181        2.8392668660
 H       -12.0226597512        6.8247414143        3.5803590095
 H       -12.9398167689        5.3921179864        3.1711406085
 H       -10.9446635104        7.6170144166        0.2011586020
 H       -11.2001959502        8.1925506123        1.7840536955
 H       -12.5371810898        8.3240994965        0.5701057536
 H        -6.2077258631        1.1292254730        2.5963667619
 H        -6.8156198183        2.6651250107        2.1533048735
 H        -7.4841503792        1.2380923813        1.4075499987
 H        -9.0465945437       -0.2549658210        4.4812102488
 H        -7.4952213535       -0.6903521802        3.5546561643
 H        -8.9560870821       -0.4795653739        2.7709427748
 H        -3.8361777581        2.9361318346        8.7028689688
 H        -2.9172586974        1.5492070238        8.0217011065
 H        -2.7613663954        1.9650148748        9.6671555561
 H        -4.4698154314       -1.2708968368        9.5277973487
 H        -3.1735448517       -0.5148182672       10.4264793502
 H        -2.9317938267       -0.5958135748        8.6995886147
 Na      -10.8390894667        5.5455044447       -1.9752805675
