117

 C        -1.0709269084        1.9866550070       -7.0755080788
 C        -1.2270357140        2.7234997613       -5.8120523643
 O        -0.6014125509        2.4622194093       -4.7834478606
 C        -2.4758433795        3.6729411206       -5.6956798069
 C        -3.5000990140        3.0614226904       -4.6903462215
 O        -4.5538652736        2.6326840727       -5.0735114160
 C        -3.2397880424        3.1512112546       -3.1720764510
 C        -4.1947383298        2.1611866602       -2.3401178992
 C        -5.5716104047        2.8870347283       -2.1464914753
 O        -5.6520656668        4.0733969248       -1.8788845566
 C        -6.8431790750        1.9550393132       -2.2022752362
 C        -8.0952812490        2.8696920276       -1.9980061286
 O        -8.8336294998        2.7974573907       -0.9870752503
 C        -8.3935531968        3.9247799117       -3.0744940230
 C        -9.4037928666        4.9425576856       -2.5804904666
 C       -10.7169905953        4.6384587804       -3.2384213863
 O       -10.9077306087        3.6136599800       -3.8844221837
 C       -11.9046991415        5.7430179791       -2.9454697015
 C       -12.4823019027        5.1132984918       -1.5654608380
 O       -12.3086127794        5.6689425508       -0.4951145028
 C       -13.1948805796        3.7275203006       -1.6721794144
 C       -12.1823693481        2.4898910715       -1.4805237375
 C       -12.7349966261        1.5131098855       -0.4978768454
 O       -13.9147059955        1.2200810173       -0.5926556942
 C       -11.8223602030        0.8566817232        0.5437214113
 C       -11.1660658098        2.0463863124        1.2772254740
 O       -11.9231646026        2.9730825374        1.6240640275
 C        -9.7661700214        2.0174223575        1.6656252713
 C        -9.4289781568        2.9696183901        2.8590303168
 C       -10.3415926057        2.7541259693        4.0621073336
 O       -10.9185300186        1.7167807306        4.2979291322
 C       -10.4336785914        3.9053441705        5.2211478368
 C       -11.8478995532        4.5586854509        4.9526642636
 O       -11.8738173486        5.4207167643        4.0711764156
 C       -13.0942585413        3.9311111795        5.6924396945
 C       -14.4940349906        4.1926222097        5.0206841155
 C       -15.0440384048        5.6252481850        5.2016724818
 O       -14.5694348968        6.3965500251        6.0439265702
 C       -16.1361745775        6.0593906556        4.2014214329
 C       -15.2268723644        6.2908412949        2.9358857929
 O       -14.8289363877        5.3006329105        2.2723072613
 C       -14.9957074853        7.6933714506        2.4901858422
 C       -17.1646834700        4.9361638471        3.9380998649
 C       -16.9588605600        7.2941015743        4.8782181976
 C       -10.4482076771        3.1730317784        6.6169054691
 C        -9.3547175113        5.0005672246        5.1119530457
 C       -12.7066660895        0.0702297159        1.5423672773
 C       -10.7846745186       -0.1295749914       -0.0352055567
 C       -11.3796372625        7.1513495139       -2.6628101860
 C       -13.0060517196        5.6726357630       -4.0660279284
 C        -6.9018004726        1.1698281662       -3.5890195070
 C        -6.7329262818        0.9446851071       -1.0431066020
 C        -1.9588090754        5.0622090380       -5.2077864796
 C        -3.2767536445        3.8020249644       -7.0350420472
 H        -0.2001780832        1.3375677103       -6.9882601198
 H        -1.0289266914        2.6848325259       -7.9044781915
 H        -1.9621275068        1.2656346394       -7.1345099976
 H        -3.5498074324        4.1139677477       -2.7600724251
 H        -2.1657121583        2.9917558201       -3.0957427218
 H        -3.6737064589        2.1440643479       -1.3402123308
 H        -4.2740568736        1.2000606982       -2.8783747900
 H        -8.6992165275        3.3991637572       -3.9942401567
 H        -7.4112503984        4.3946090340       -3.2878666912
 H        -9.0381479773        5.9682887512       -2.8520129652
 H        -9.4311361150        4.8890868567       -1.5195423193
 H       -13.6901330120        3.7245739788       -2.6774672853
 H       -13.9172030568        3.7286576357       -0.8298033356
 H       -11.2133895077        2.8029078053       -1.1140714554
 H       -11.9348117742        2.0418082708       -2.4246080662
 H        -9.1094382230        2.1879576527        0.8211637115
 H        -9.5817789356        0.9829688275        2.0154902920
 H        -9.3369658336        3.9784004839        2.5337075562
 H        -8.3615100177        2.7882358403        3.2596491191
 H       -13.1551664279        4.2327460759        6.7418577981
 H       -12.8913259273        2.8952339625        5.6486827374
 H       -15.2150156463        3.5722434328        5.5414896312
 H       -14.4354227616        4.0098201231        3.9680859708
 H       -15.9121058701        8.0928533713        2.0727992721
 H       -14.2389959730        7.7091992222        1.7094312082
 H       -14.7742782474        8.3504460975        3.3666943871
 H       -17.6296924924        4.6940823059        4.9227888067
 H       -16.5202489311        4.1274591813        3.6543456669
 H       -17.8999091317        5.1756472585        3.1853030490
 H       -17.6407930427        7.4254503497        4.0701438131
 H       -16.2795943407        8.0835655264        5.0954657879
 H       -17.4029613456        7.0240211841        5.8143962886
 H       -10.7788530897        3.9457761372        7.3349501610
 H        -9.4368884137        2.8368876959        6.7894510354
 H       -11.0465261133        2.3393519081        6.6639759059
 H        -9.4271715909        5.4749262241        4.1167103661
 H        -8.3524512787        4.7485831817        5.4622584274
 H        -9.7208550711        5.7695707716        5.7349877395
 H       -12.0636721623       -0.7060697730        2.0849703288
 H       -13.5645918684       -0.3888524340        1.1098987060
 H       -13.1115199399        0.7958911414        2.2997327859
 H        -9.9611778378        0.4370345295       -0.4916829646
 H       -11.2715158125       -0.7041313081       -0.8171766851
 H       -10.4137456226       -0.7688699950        0.7500460267
 H       -12.1692795350        7.8563657128       -2.5674821684
 H       -10.7278791244        7.4802008895       -3.4727686814
 H       -10.8435990126        7.2373247665       -1.7146717781
 H       -13.9435374528        5.9519400349       -3.6864998042
 H       -13.1077088836        4.6590374707       -4.4860326419
 H       -12.6870209762        6.4714505116       -4.7837093260
 H        -6.0300009206        0.4539866273       -3.7099353664
 H        -6.8999665752        1.8620636606       -4.3886098712
 H        -7.7445079505        0.5548739108       -3.6182792778
 H        -7.7081533228        0.4913989173       -0.8636209615
 H        -6.3430743125        1.3376757787       -0.0661514370
 H        -5.9900411624        0.2044310396       -1.3439551982
 H        -0.9780070405        5.3205935173       -5.5887617705
 H        -1.7546194331        4.9572658352       -4.1464898943
 H        -2.6732981364        5.9213915979       -5.2533396407
 H        -4.0396443648        4.5160044681       -6.9093746392
 H        -3.7857875967        2.8389438384       -7.2745699039
 H        -2.6001592483        4.1645029867       -7.8313700546
 Na      -12.7903108300        5.0883666173        1.6495478254
