117

 C        -1.1405159777        1.7093227545       -7.1037173367
 C        -1.3466817436        2.6094684386       -5.8387791647
 O        -0.5984467034        2.4835560546       -4.9275479023
 C        -2.5241514116        3.7487085855       -5.6621045054
 C        -3.5546845190        3.0703411449       -4.5940316570
 O        -4.6456052808        2.6644694886       -4.9797410555
 C        -3.0810410904        3.0129511448       -3.1367078176
 C        -4.2163381528        2.1811984864       -2.3307806893
 C        -5.5406769211        2.8352797674       -2.1184345242
 O        -5.5481749162        4.0127363456       -1.7994051515
 C        -6.8605876543        1.9134001274       -2.1125423250
 C        -8.0725843917        2.8618580592       -1.9279766857
 O        -8.8775052745        2.7802757162       -1.0070235097
 C        -8.2239484574        3.9570719709       -2.9764763765
 C        -9.4095048375        4.8486190760       -2.6459669663
 C       -10.6755707939        4.5963906380       -3.3729835837
 O       -10.9787536143        3.6718267443       -4.0709657365
 C       -11.8495191262        5.5926652291       -2.9123550854
 C       -12.4588413421        4.9971113626       -1.6452224807
 O       -12.3177479311        5.6521761992       -0.6144925346
 C       -13.1240418909        3.6808181068       -1.7264498659
 C       -12.0760307465        2.5727507223       -1.4861538449
 C       -12.8049135140        1.4829076656       -0.5219586721
 O       -13.9746199864        1.3352457984       -0.5123941669
 C       -11.8088970389        0.8431271095        0.5931903675
 C       -11.2043235800        2.0601240341        1.3704298964
 O       -11.9110420082        3.0433607727        1.5799011828
 C        -9.7495186249        1.9742828251        1.8147398125
 C        -9.4616434522        3.0683574578        2.8678739200
 C       -10.3323603246        2.8381911019        4.1091887598
 O       -10.9489055881        1.8258746695        4.2493998463
 C       -10.4999219650        4.0710568617        5.2016379172
 C       -11.9367634025        4.5630169542        4.8473073450
 O       -12.1197744987        5.4433529541        4.0339267557
 C       -13.0864035017        3.9027279631        5.5968211366
 C       -14.4637919554        4.1549678396        4.9548152403
 C       -14.9625874697        5.5636838394        5.2957649080
 O       -14.6093363063        6.2955083507        6.1466636142
 C       -16.0503057204        6.0783547491        4.1691280373
 C       -15.2969491039        6.3715377864        2.9466085092
 O       -14.8771794833        5.4098578706        2.3178110063
 C       -14.9161995598        7.8153342761        2.4781196954
 C       -17.0191309157        4.8597835816        3.9558492681
 C       -16.8008375639        7.3317337475        4.7322377105
 C       -10.4093129480        3.2997558898        6.5630931020
 C        -9.3221980181        4.9969685128        5.0166607063
 C       -12.6986464269        0.0391641000        1.6022675853
 C       -10.7480822432       -0.0313847313       -0.0598411814
 C       -11.2568538294        6.9601404272       -2.5886440377
 C       -12.9813014599        5.5983292124       -3.9705427254
 C        -6.9768686389        1.1745270302       -3.4447278176
 C        -6.8708811784        0.9045592627       -0.9231159045
 C        -2.0614292276        5.1600833488       -5.2189134188
 C        -3.2531353743        3.9789779621       -7.0500902664
 H        -0.2697391910        1.0927902964       -7.0126698790
 H        -1.0574841370        2.4637075393       -7.8794833569
 H        -2.0128751805        1.0754861855       -7.2817864832
 H        -2.9550021386        3.9921137435       -2.6943935434
 H        -2.1299388934        2.5149263029       -3.2470545593
 H        -3.7956882668        2.0786467990       -1.3020151630
 H        -4.3280660291        1.2455611499       -2.9082354278
 H        -8.3183967524        3.4427111294       -3.9391266332
 H        -7.2773814969        4.5109352113       -3.0175858531
 H        -9.0481482334        5.9151602921       -2.8068896612
 H        -9.5933621329        4.7533072755       -1.6000146144
 H       -13.5704286389        3.6145218585       -2.6893381664
 H       -13.8574753707        3.6852825646       -0.8904668976
 H       -11.1118107308        2.9369068336       -1.1262652561
 H       -11.8058331652        2.1552743635       -2.4350856772
 H        -9.1340018074        2.1936597095        0.9329036884
 H        -9.4992104058        0.9417778969        2.1835995957
 H        -9.6890477510        4.0136253895        2.3409364650
 H        -8.4551995782        3.2205165297        3.1492452030
 H       -13.1344376126        4.2852432748        6.6317266548
 H       -12.8622766203        2.8594793595        5.6369812432
 H       -15.2003486116        3.5124220192        5.4619725288
 H       -14.4150733487        4.0621807353        3.8513480397
 H       -15.7907527661        8.4600059899        2.1438073559
 H       -14.1960074119        7.7327713011        1.6457735879
 H       -14.5222510878        8.3734318071        3.3266069732
 H       -17.5670675809        4.5979891889        4.9020531825
 H       -16.2981178988        4.0708660661        3.7171115396
 H       -17.7075789861        5.0195351780        3.1714885021
 H       -17.5754207084        7.4788106763        3.9629468987
 H       -16.1178960268        8.1215699670        4.9661593559
 H       -17.1564823888        7.0812972122        5.6840295166
 H       -10.9341823662        3.9102705124        7.3453271513
 H        -9.3236844784        3.1335253742        6.7779545964
 H       -10.8552827436        2.3459079118        6.4848212982
 H        -9.1408328273        5.2666737547        3.9679979054
 H        -8.4774044699        4.5504646672        5.5680472218
 H        -9.5256082888        5.9381181107        5.5062474728
 H       -12.1136049325       -0.3818589348        2.4355896684
 H       -13.2324312759       -0.8003483792        1.0573717597
 H       -13.5095686863        0.7157526865        1.9999903799
 H       -10.0460134135        0.6112132685       -0.4696097374
 H       -11.2607022976       -0.6426080439       -0.8786704882
 H       -10.2717657647       -0.7029502739        0.6661534589
 H       -11.9968806102        7.7155004826       -2.4745777967
 H       -10.6315243185        7.2689059983       -3.3885334307
 H       -10.6852290709        6.9319467510       -1.7364959737
 H       -13.9542458724        5.8413228928       -3.5698681755
 H       -13.0090753497        4.6755588568       -4.4946910102
 H       -12.6779336342        6.4455388623       -4.5883951916
 H        -6.3363432141        0.2962810894       -3.4117604230
 H        -6.6936957906        1.7831525969       -4.3055217464
 H        -7.9786228099        0.7723062360       -3.4923203668
 H        -7.8850617475        0.4832848170       -0.7325645098
 H        -6.4666086251        1.2809766376        0.0062925982
 H        -6.1270418776        0.1579191892       -1.2024252915
 H        -1.2938982074        5.5212826688       -5.9090595034
 H        -1.5982768461        5.1889394431       -4.2380874492
 H        -2.8632659160        5.8404895461       -5.1447360356
 H        -4.0702313918        4.6976571324       -6.9815889028
 H        -3.7108853254        3.0399881837       -7.4124553199
 H        -2.4945108373        4.3179003035       -7.7078863286
 Na      -12.8216479096        5.0551194721        1.6157087126
