117

 C        -2.0321372593        1.4020881076       -6.8868353585
 C        -1.6492372132        2.4841829319       -5.8501182273
 O        -0.5978518506        2.4879804304       -5.2604010138
 C        -2.8124621780        3.7096683933       -5.5485308319
 C        -3.7946532823        2.9870244268       -4.5088821234
 O        -4.9989905731        2.9010296195       -4.8001080203
 C        -3.1347818239        2.5868165845       -3.2073666071
 C        -4.1931099677        1.7209443409       -2.4517243938
 C        -5.2971315807        2.5227408774       -1.9465067192
 O        -5.1685324225        3.6169784738       -1.4570431880
 C        -6.7480359405        1.7942361698       -1.9442907146
 C        -7.9432582327        2.8080603013       -1.9820083070
 O        -8.8097733722        2.7305263119       -1.1469672485
 C        -8.0868604951        3.8074333171       -3.1810408925
 C        -9.0838024692        5.0069737746       -2.8758585441
 C       -10.4558272741        4.8040959651       -3.5215545875
 O       -10.5329377173        3.9582927336       -4.3734919430
 C       -11.7683626463        5.6249729022       -3.1127860113
 C       -12.3172972179        4.9455167508       -1.8825089244
 O       -12.1795601642        5.4577015788       -0.7644109359
 C       -13.1797210922        3.5876962032       -1.8481036198
 C       -12.3498082777        2.3407470314       -1.4343123943
 C       -12.9187427877        1.4769838242       -0.2943294697
 O       -14.1038765630        1.2908976459       -0.1023317944
 C       -11.7388333796        0.7851179836        0.6761639721
 C       -11.1274332724        2.0347109301        1.3726712220
 O       -11.9795138929        2.8763742727        1.6196362645
 C        -9.7201109042        2.0201894168        1.9738251588
 C        -9.4041459129        3.1054472263        3.0450875194
 C       -10.2669628209        3.0839523433        4.2742318170
 O       -10.9238431822        2.0877150459        4.5221790858
 C       -10.5398012115        4.4338237766        5.0811735375
 C       -12.0217686810        4.6248267704        4.6949394738
 O       -12.3657500739        5.3208283676        3.7566148338
 C       -13.0731158341        3.8760111453        5.5254134024
 C       -14.4857560831        3.9972427739        4.8389649696
 C       -15.1030055871        5.4137039665        5.1798451643
 O       -14.7767820005        5.9943355948        6.1633514833
 C       -16.1131086487        6.2616631171        4.1820296964
 C       -15.1901814816        6.5194355209        2.9197727238
 O       -14.9867201301        5.6067981543        2.1340664681
 C       -14.4959152030        7.8407146304        2.7754644594
 C       -17.2317013425        5.2439391798        3.7442543049
 C       -16.4913133662        7.5555474696        4.9542142680
 C       -10.1685759451        4.1179160065        6.5733315497
 C        -9.7242760396        5.7427301567        4.6765704256
 C       -12.4229069713       -0.1827726195        1.6960191867
 C       -10.7320893597       -0.0644662116       -0.2265692398
 C       -11.3984080518        7.0947011901       -2.7575751112
 C       -12.7241013310        5.5344460798       -4.2864193418
 C        -6.7882480535        0.7403105011       -3.0807009723
 C        -6.7063548155        1.0674859375       -0.5538861792
 C        -2.1564137471        4.9502634228       -4.9003234623
 C        -3.5241672865        4.1646200914       -6.8543485892
 H        -1.1431296763        0.7443413039       -6.7761644663
 H        -1.8839320925        1.8940962366       -7.8899623822
 H        -3.0026294300        0.9560260162       -6.8186227588
 H        -2.9260877969        3.5461710462       -2.7178904973
 H        -2.1762333299        2.1066266642       -3.4204545069
 H        -3.6937954940        1.1952874580       -1.5784183392
 H        -4.5600895975        0.9231073484       -3.1745467821
 H        -8.6338019394        3.2270285499       -3.9544565811
 H        -7.1143684998        4.0937111981       -3.6286441333
 H        -8.5440746193        5.9180658496       -3.2642880448
 H        -9.2277685471        5.1719140260       -1.8269419933
 H       -13.7312642524        3.4225264158       -2.7752368500
 H       -14.0031113563        3.8322689453       -1.0729715710
 H       -11.3696908615        2.6881448356       -1.1172477199
 H       -12.2055292934        1.6739801158       -2.2727706112
 H        -9.0156168113        2.1357947346        1.1681568286
 H        -9.4871141859        1.0822961173        2.5019714968
 H        -9.3058237381        4.1557542608        2.6219499074
 H        -8.4232133945        2.8953621275        3.3754270539
 H       -13.0494410501        4.2549819552        6.5462320897
 H       -12.7989777845        2.8521267098        5.5640430378
 H       -15.1563176140        3.2655663220        5.2702122352
 H       -14.3770776465        3.8378528971        3.7658386673
 H       -15.1062631098        8.7671876271        2.7234496161
 H       -13.9273192294        7.6589022582        1.8673401433
 H       -13.8156936480        8.0037109927        3.5689566025
 H       -17.6143942386        4.7584284137        4.6479872479
 H       -16.7355383266        4.4609149565        3.1279878395
 H       -18.0764686092        5.7153619383        3.2414681491
 H       -17.0648667931        8.1243244165        4.2320249927
 H       -15.5795706236        8.1030221760        5.2352241867
 H       -17.0648252490        7.3084825875        5.8510886340
 H       -10.3142816473        4.8511594384        7.3068308302
 H        -9.1338195343        3.8893751227        6.5765463969
 H       -10.8064806055        3.1642309417        6.7674491917
 H       -10.3253967957        6.3570001540        4.0355222678
 H        -8.8196825017        5.4761402350        4.1428116782
 H        -9.4737476458        6.2963018709        5.5891577790
 H       -13.1238839851        0.2924451814        2.3287928454
 H       -11.6368345955       -0.7257230313        2.3272116857
 H       -13.0605078773       -0.8891014432        1.1376786361
 H       -10.1393595449        0.5681649146       -0.8125702155
 H       -11.3733665575       -0.8098500383       -0.7299754246
 H       -10.1024993415       -0.6521696774        0.4324210999
 H       -12.3074955566        7.6870458101       -2.5038996497
 H       -10.9107234229        7.6476607823       -3.5484104491
 H       -10.6832423528        7.0050188192       -1.9640877794
 H       -13.6381158660        6.1781384490       -4.1265732921
 H       -12.9215458618        4.4811419042       -4.4295542966
 H       -12.2314898366        5.8313497003       -5.2049836107
 H        -6.1005682649       -0.0166611015       -2.9408865033
 H        -6.6330457096        1.1348367094       -4.0910116487
 H        -7.7934569759        0.3389658806       -2.9772748270
 H        -7.5184235676        0.3328655580       -0.3367316436
 H        -6.7901098701        1.8144529320        0.2006607320
 H        -5.7226533186        0.6074059438       -0.3743522821
 H        -1.7458569276        5.5876769536       -5.7307893424
 H        -1.3630356449        4.7598188621       -4.1269178165
 H        -2.8446884972        5.6184212661       -4.4056115911
 H        -4.2342053343        4.9965020479       -6.6068471179
 H        -4.1192982323        3.3085474136       -7.1712357255
 H        -2.8389708424        4.3721486072       -7.6370768602
 Na      -12.8213480562        5.0622016148        1.4761616120
