117

 C        -6.2946452027        0.1224311541       10.8553107490
 C        -5.4594429385        1.1948270893       10.2358696410
 O        -5.5012218847        2.3066516558       10.6916229540
 C        -4.3950396546        0.8581687781        8.9827829979
 C        -5.3372892632        0.4990331731        7.8421984868
 O        -5.4864717408       -0.7309152565        7.6222749956
 C        -5.6379040981        1.6397961834        6.7860543619
 C        -6.8160847772        1.1543073631        5.8899196153
 C        -7.2699650435        2.0890159690        4.7904259159
 O        -7.0009583733        3.2607272491        4.7154162904
 C        -7.9849435360        1.4078585626        3.5657232441
 C        -9.3850780393        2.1763770223        3.2928033462
 O       -10.4616802097        1.7694854679        3.7522306382
 C        -9.3787966487        3.5308362247        2.4609426429
 C       -10.8088333122        4.1402874109        2.3785010400
 C       -10.9499901310        5.2833136524        1.2719247126
 O       -10.1851430710        5.4879029677        0.3687091279
 C       -12.2566813093        6.2209612261        1.3419798326
 C       -13.1959029763        5.6357661737        0.3170510267
 O       -12.9058481113        5.8398963360       -0.8683973884
 C       -14.4793005454        4.7869861210        0.5839747597
 C       -14.5054689981        3.5714865749       -0.3331363444
 C       -13.0788023277        3.0860205056       -0.7803529570
 O       -12.0914267634        3.4529104886       -0.2330579950
 C       -13.0157706175        1.8277918081       -1.8437377005
 C       -12.3214103438        2.4944738477       -2.9957767457
 O       -11.4607140556        3.3477363606       -2.8652222709
 C       -12.7005074859        2.1580432902       -4.5327466170
 C       -12.0099219954        3.1680556536       -5.4409211954
 C       -12.3198909492        2.8495408401       -6.8771506611
 O       -13.1168091385        2.0275513370       -7.2217625547
 C       -11.3861516248        3.6164345091       -8.0279068698
 C       -10.5994267160        4.8047719318       -7.3060641314
 O        -9.5351262514        4.5692735784       -6.8176095887
 C       -11.2958874793        6.2241301121       -7.1707001694
 C       -10.4273842899        7.3465106140       -6.3595929358
 C        -9.9224843094        7.0393307098       -4.9033336367
 O       -10.7295353278        6.5858469401       -4.1237482922
 C        -8.4423900231        7.3425835256       -4.4867495005
 C        -8.0184557258        5.9634446657       -3.9272202511
 O        -8.6324452773        5.4971904559       -2.9264745649
 C        -6.9174976470        5.1847154018       -4.5329885366
 C        -7.4672948099        7.8474520567       -5.5680534517
 C        -8.4132611408        8.3021759918       -3.2699469038
 C       -10.3441416405        2.4869767970       -8.3562704352
 C       -12.3757393829        4.1641186501       -9.1304264737
 C       -11.9990388621        0.7705882996       -1.2990544640
 C       -14.3674524933        1.0748275216       -2.1197991786
 C       -12.9793654835        6.5098197337        2.7022046359
 C       -11.8411229769        7.6768063176        1.0071147782
 C        -6.9738101780        1.5914585975        2.3426259160
 C        -8.4111210767       -0.0431971743        3.6808775802
 C        -3.3942483805        2.0344845110        8.7178199306
 C        -3.6095990107       -0.3312372924        9.4518350158
 H        -6.7969506367       -0.4377737891       10.0713460332
 H        -7.0717345804        0.5775641362       11.5775113658
 H        -5.8544360330       -0.6133440832       11.5061263109
 H        -4.7141388238        1.6583588332        6.2298222895
 H        -5.8385569379        2.5775374783        7.1519893104
 H        -7.6101929368        0.9060237243        6.5361287894
 H        -6.4764542457        0.2382004428        5.3227503059
 H        -8.9135860311        3.1950041711        1.5631303374
 H        -8.7139964055        4.2242104950        2.9769976439
 H       -11.0649525790        4.5667651978        3.3376271850
 H       -11.5431948289        3.3757292306        2.1174218192
 H       -15.4105032583        5.4349773692        0.5457780281
 H       -14.3082285770        4.3399623396        1.5236845466
 H       -15.0338549824        3.8283264767       -1.2615763895
 H       -14.8613322495        2.6240460993        0.2279420610
 H       -13.7530004773        2.4050914586       -4.7651930565
 H       -12.4125253205        1.0774526666       -4.7936141117
 H       -10.9030269493        3.3913756791       -5.3897219750
 H       -12.4816969165        4.1667800104       -5.1829275107
 H       -12.3290871151        6.2493563040       -6.8358512065
 H       -11.3380188747        6.6837700578       -8.1424273862
 H       -10.9800589875        8.2400874269       -6.2718519775
 H        -9.5919091882        7.4476678152       -7.0075077246
 H        -5.9714706542        5.8001490321       -4.7188218260
 H        -7.0994663638        4.8015014526       -5.5462609838
 H        -6.7515518962        4.3007373425       -3.8611559525
 H        -7.6925248868        8.8130647438       -6.0523865539
 H        -7.4108431874        7.1049763842       -6.3203155665
 H        -6.5529862764        8.0141898135       -5.0620533523
 H        -8.9139339236        8.0152516712       -2.3480846632
 H        -8.9007300196        9.2422070754       -3.6521917931
 H        -7.4097959347        8.5220791337       -3.0240330270
 H       -10.7876533146        1.5683156944       -8.7002328704
 H        -9.6624901105        2.3192570379       -7.5199380531
 H        -9.6045116126        2.8732747636       -9.1043410275
 H       -13.0631165623        3.4399331645       -9.5704606572
 H       -11.8518694356        4.7439464940       -9.8600241490
 H       -13.1844709455        4.7045648447       -8.5882749329
 H       -12.1765453172        0.2555201981       -0.4009160317
 H       -10.9889667965        1.1700270582       -1.3941267794
 H       -12.0872140552       -0.0187649067       -2.0192564516
 H       -14.4740511854        0.3365085298       -1.3431863741
 H       -14.2445418193        0.3773741353       -2.8884844688
 H       -15.1552006149        1.7528200559       -2.1935302101
 H       -13.7430447258        7.2822104598        2.5978519566
 H       -12.3955238184        6.8386583354        3.4620812621
 H       -13.4924783356        5.6066506158        3.1394253457
 H       -11.1047106635        7.5803502059        0.2493707753
 H       -11.3506736550        8.0795619770        1.8645325445
 H       -12.7093953477        8.2034495676        0.6266306035
 H        -6.0946464036        1.0256808460        2.5082065563
 H        -6.6302261479        2.6132518005        2.3265844204
 H        -7.3975778232        1.4093516652        1.3571891617
 H        -9.0654187976       -0.1168194314        4.5712105706
 H        -7.6814212150       -0.8842460536        3.6006124737
 H        -9.1101381842       -0.3796895225        2.8811527515
 H        -3.8205873545        3.0422860831        8.8471721482
 H        -2.9761223693        2.0115438219        7.6798415671
 H        -2.5112839629        2.0015358884        9.2818755526
 H        -4.2110466959       -1.2301080828        9.4715835658
 H        -3.3312539622       -0.2858036287       10.5136381565
 H        -2.6874428785       -0.4488279804        8.8734863822
 Na      -10.9932382205        5.4197818584       -1.8946116049
