117

 C        -2.9111665144        1.3532446510       -6.7813120894
 C        -2.1648690736        2.4263657892       -6.0638537646
 O        -0.9701966086        2.4740419035       -5.8687079011
 C        -2.9740995401        3.6019914695       -5.4965425468
 C        -3.8117214334        3.0171220799       -4.3210648945
 O        -5.0258413494        3.0133643433       -4.3127868185
 C        -3.2077642940        2.3719457627       -3.0028869968
 C        -4.3516290531        1.4987849878       -2.4665757534
 C        -5.4689143798        2.3276456795       -1.8517742825
 O        -5.2443184784        3.4885396395       -1.5319903253
 C        -6.8429724166        1.5605445253       -1.6494654484
 C        -7.9900394322        2.6731284241       -1.6864877978
 O        -8.9828570836        2.7234194911       -0.9493850936
 C        -7.7945416900        3.7934638354       -2.7313069476
 C        -8.8688458408        4.8405845921       -2.8607910889
 C       -10.2036524704        4.3685338375       -3.4912758672
 O       -10.2620552781        3.4997997803       -4.3278793342
 C       -11.4290867788        5.3406923244       -3.1821135234
 C       -12.0795612382        4.8545236693       -1.8518737308
 O       -11.7608568492        5.3604934312       -0.7602829051
 C       -12.9588045983        3.6189981047       -1.8629044335
 C       -12.0729039084        2.3592603773       -1.5963613716
 C       -12.6546438247        1.6281155691       -0.3167752652
 O       -13.8085817254        1.6571751933       -0.0265179314
 C       -11.6730966772        0.9127052620        0.6428645751
 C       -11.0833967216        2.0797961335        1.5538946770
 O       -11.7438360459        3.0225881871        1.9577684858
 C        -9.6652062796        1.8903886382        2.0952571500
 C        -9.1217889277        3.0685441463        3.0115956302
 C       -10.0406046164        3.2969454170        4.2610346950
 O       -10.3027362958        2.4112518124        5.0278344510
 C       -10.6445633928        4.7507028154        4.7827094958
 C       -12.2322077820        4.6887301376        4.3258839546
 O       -12.6165693842        5.4027219881        3.4012611796
 C       -13.1664728390        3.8178608224        5.0281194049
 C       -14.6856277289        4.1125890731        4.8824905894
 C       -15.1643348270        5.5368479132        5.3678723972
 O       -14.8994671469        6.0570110014        6.4210623156
 C       -15.9633505697        6.3786228618        4.1349599765
 C       -15.0234233179        6.5892020281        2.8820284791
 O       -14.9060877889        5.7944780267        1.9675782363
 C       -14.1153602154        7.8068575951        2.9511553732
 C       -17.2372472974        5.5538766101        3.6784059270
 C       -16.5529391756        7.7306123318        4.7372789765
 C       -10.6009531299        4.7719307253        6.3054669200
 C        -9.9822977084        5.9376343634        4.1273648643
 C       -12.5630590239       -0.0461543395        1.4986319059
 C       -10.6609927014        0.0553539496       -0.1207882421
 C       -11.0574814767        6.8289461075       -3.1296834528
 C       -12.4389302187        5.2494157635       -4.3667616679
 C        -7.1590785822        0.6864162571       -2.9174577818
 C        -6.8583676466        0.8095509195       -0.3806816679
 C        -2.0766375395        4.7191561063       -4.8501181973
 C        -3.9962723106        4.2228582028       -6.4728614395
 H        -2.2397573318        0.4899847441       -6.7033455181
 H        -3.0970796488        1.6237894766       -7.8358643675
 H        -3.9186042655        1.2837878417       -6.3099299584
 H        -2.7490508828        3.0620914951       -2.3124000017
 H        -2.3972513404        1.7289628084       -3.3409107882
 H        -4.1459580348        0.8678812747       -1.5551475280
 H        -4.6311936430        0.6771321275       -3.1815363688
 H        -7.7353761362        3.2407038557       -3.6894012538
 H        -6.8029121884        4.2139438383       -2.5529066014
 H        -8.5027837215        5.5596705844       -3.5410739705
 H        -8.9689704340        5.3675261146       -1.8501981921
 H       -13.4924209522        3.4263561640       -2.8398143320
 H       -13.8338576068        3.6478259268       -1.1634959901
 H       -11.0436752189        2.6158474276       -1.4547623528
 H       -12.2235219046        1.7592287048       -2.4932005420
 H        -8.9613909010        1.8592735405        1.2434769295
 H        -9.7035724402        0.9332486573        2.5929793033
 H        -9.0924255995        3.9706525545        2.4242371751
 H        -8.1493410937        2.8543508725        3.4315965416
 H       -12.9185004691        3.8724833581        6.0421490281
 H       -12.8954707815        2.7914109319        4.7440197867
 H       -15.2394257233        3.3189759298        5.3879618643
 H       -15.0186789483        4.0357861321        3.8496300839
 H       -14.7136412570        8.6817745601        2.9402186442
 H       -13.3716925565        7.9204666799        2.1797348052
 H       -13.5500462102        7.7950112898        3.9051726695
 H       -17.8747647005        5.3524828123        4.5250107079
 H       -17.0378866265        4.6768528674        3.0582837107
 H       -17.7468473565        6.1998073813        2.8802652562
 H       -16.8843751535        8.4556784300        4.0396291811
 H       -15.7525017218        8.1866464356        5.2882359498
 H       -17.4950766767        7.5165585478        5.2815691723
 H       -11.1908763920        5.6519347206        6.6973994727
 H        -9.5397354919        4.9377839103        6.6387099834
 H       -10.9085489658        3.9255891392        6.7530890017
 H       -10.3058884502        6.0579669377        3.1089280401
 H        -8.9390124308        5.7381213582        4.0837988981
 H       -10.1826381000        6.8538391055        4.7026573194
 H       -12.9983577033       -0.9032965535        0.8884348148
 H       -13.3617139617        0.4311907415        2.0245639013
 H       -11.9498317763       -0.5478937534        2.2235585490
 H       -10.0788993853        0.7747395025       -0.7745199456
 H       -11.2227258785       -0.5960452007       -0.6938159296
 H       -10.0267744721       -0.4354543835        0.5882920132
 H       -12.0383092367        7.2881823060       -3.0947967353
 H       -10.5418884717        7.1191012997       -4.0660462875
 H       -10.5883938903        7.2368830052       -2.1919916011
 H       -13.4369860003        5.4948958956       -3.9716570821
 H       -12.4885806709        4.2388676214       -4.8845418995
 H       -12.1773443287        6.0210264797       -5.1067433951
 H        -6.4743694665       -0.1706245344       -3.0134721351
 H        -7.0570021247        1.3658958837       -3.7113363221
 H        -8.1816364260        0.3228584927       -2.9058982055
 H        -7.5925023822        0.0465377245       -0.2661971293
 H        -6.8538083024        1.4719094354        0.4812449928
 H        -5.9531859054        0.2117261025       -0.3612277450
 H        -1.4890798449        5.2592998379       -5.5931538137
 H        -1.3269213749        4.2050761167       -4.2333006860
 H        -2.6547211633        5.5016623120       -4.2598881733
 H        -4.3392245370        5.1356301050       -5.9750058231
 H        -4.7928460617        3.5280854290       -6.6461462326
 H        -3.5464018321        4.5680238876       -7.4363810908
 Na      -13.0062908123        4.8966777842        1.1995259209
