117

 C        -3.0589436540        1.3152646252       -6.8464488414
 C        -2.2877888555        2.4252452809       -6.1119346032
 O        -1.0885653900        2.3704283077       -6.0362998361
 C        -3.1025839662        3.6776359790       -5.3398843642
 C        -3.9227791360        3.0251631079       -4.2492914273
 O        -5.1189091039        3.0375868767       -4.2829542062
 C        -3.1803167467        2.3020021145       -3.1030008663
 C        -4.1327808750        1.3652023984       -2.4039610464
 C        -5.4356422335        2.3353531185       -1.8574348223
 O        -5.2288202449        3.3979756423       -1.2827048898
 C        -6.8779814687        1.6620253937       -1.7257324718
 C        -8.0167743361        2.7108341563       -1.6774338329
 O        -8.9254974537        2.6363270413       -0.8344291052
 C        -7.8416235460        3.7617937354       -2.7825172034
 C        -8.8730595087        4.8196099950       -2.7844012986
 C       -10.1648927920        4.4353916202       -3.4838731016
 O       -10.3199351849        3.3827294590       -4.0534594298
 C       -11.4816944189        5.4337821704       -3.2822104766
 C       -12.0041310831        4.8576007583       -1.8944760611
 O       -11.7657255385        5.4438421608       -0.8398822239
 C       -12.8461226228        3.5844679542       -1.9165404116
 C       -12.1014029891        2.2847990211       -1.5202569276
 C       -12.6873594401        1.6633507227       -0.2848784845
 O       -13.8573315449        1.8410461456       -0.0226635078
 C       -11.6417950623        0.9003592695        0.6513915731
 C       -10.9946285786        1.9579120674        1.5987732125
 O       -11.7200938814        2.8991110204        1.9223260961
 C        -9.5591487751        1.9234786251        2.1819313502
 C        -9.2394369256        3.1788329324        3.0788818801
 C       -10.1200553459        3.3319314851        4.3527686050
 O       -10.3068061931        2.4285350754        5.1104568021
 C       -10.6314539516        4.8315051134        4.7193997383
 C       -12.1809604021        4.7018780887        4.3403614907
 O       -12.5213552834        5.2157405888        3.2920079649
 C       -13.2027175361        3.8101451955        5.1975124017
 C       -14.6372323119        4.1653323866        4.7949520889
 C       -15.1317973462        5.5355200320        5.2127349957
 O       -14.8982761494        5.9516398499        6.2686997867
 C       -15.9518505295        6.4194699695        4.1385154708
 C       -15.0191001007        6.6821353656        2.9468461354
 O       -15.0146620183        5.8863823255        2.0064205987
 C       -14.1280045506        7.8974622135        2.8652888917
 C       -17.2479676666        5.5470057046        3.6738049966
 C       -16.4552827104        7.7448764205        4.6646746817
 C       -10.5705008311        4.8884686507        6.2241334324
 C        -9.9730814999        6.0632694514        4.0135186053
 C       -12.5486218302        0.0114085541        1.5870192170
 C       -10.6481022334       -0.0310456913       -0.1033191205
 C       -11.0136346738        6.8815477275       -3.1355821642
 C       -12.2828009065        5.1569542069       -4.5278938601
 C        -7.2532837387        0.7200301333       -2.9102148397
 C        -6.8324421798        0.8372271743       -0.4122336116
 C        -2.1126154340        4.6650494439       -4.7096575290
 C        -4.0128227501        4.2344850513       -6.4350161188
 H        -2.3734034984        0.5140491711       -6.6745221924
 H        -3.2055637882        1.4609449826       -7.8909546400
 H        -4.0754713189        1.1913758229       -6.3602724061
 H        -2.7720534601        3.0746741496       -2.4655922926
 H        -2.2760202487        1.8112618200       -3.4864260486
 H        -3.7416647316        0.7737189651       -1.5644089361
 H        -4.4257146936        0.5590360893       -3.1039679522
 H        -7.7220276414        3.2667918978       -3.7470133089
 H        -6.8686516816        4.1814995921       -2.5297909740
 H        -8.4545150845        5.7283304925       -3.1876407429
 H        -9.1318241416        5.0362309388       -1.7223804921
 H       -13.4355286276        3.4846606790       -2.8665787633
 H       -13.6399044412        3.7238968558       -1.1830200707
 H       -11.1186171825        2.6003961645       -1.1998203152
 H       -12.0375388127        1.5738764421       -2.3410413604
 H        -8.8369394800        2.0058616794        1.3275777842
 H        -9.3826372974        1.0043255207        2.7554166271
 H        -9.2587423320        4.0506422232        2.5131220907
 H        -8.2223004926        3.0321622057        3.5052957350
 H       -13.0388706214        3.7996608082        6.2679160217
 H       -12.9579844894        2.7943508645        4.8676908496
 H       -15.3895652229        3.4659830835        5.2667231441
 H       -14.7782826747        3.9524150214        3.7275229890
 H       -14.7717676007        8.7757910560        2.8823016427
 H       -13.5807034082        7.9892259958        1.9442241467
 H       -13.3415459154        7.9756813124        3.6558983661
 H       -17.8323717952        4.9591860814        4.4412839266
 H       -16.9881106891        4.9739239001        2.8027770792
 H       -17.8557244811        6.2217826936        3.1362616397
 H       -16.8803311934        8.5106273399        3.9597042224
 H       -15.6324834247        8.2136908294        5.2025315292
 H       -17.3026824810        7.5619925156        5.2588067302
 H       -11.2120118394        5.7301959321        6.6018369442
 H        -9.5212072251        5.1431460422        6.4897285157
 H       -10.7515111786        3.9649894075        6.7921105926
 H       -10.3761674850        6.2752824752        2.9959109621
 H        -8.9055933654        5.8254760261        3.8954504625
 H       -10.0793707180        6.9062611967        4.6199812994
 H       -12.6806911308       -1.0607477073        1.2922228397
 H       -13.5753053363        0.4289240432        1.7059866278
 H       -12.1170796209       -0.0327571901        2.6363518565
 H        -9.9084592211        0.5059582900       -0.6299336071
 H       -11.2625083063       -0.6503066908       -0.7964884580
 H       -10.2326384265       -0.5950376136        0.7106172420
 H       -11.8034007787        7.5594709651       -3.0570189131
 H       -10.3416108778        7.1384161476       -3.9469279412
 H       -10.5633742725        6.9492576279       -2.1990957101
 H       -13.2835804223        5.4529390375       -4.4049650031
 H       -12.3127179863        4.0715967293       -4.7310061576
 H       -11.8315418799        5.7410741099       -5.3942958253
 H        -6.6004276487       -0.1812147250       -2.7457910866
 H        -7.0501931209        1.2326641611       -3.8186429177
 H        -8.2367023226        0.4073937348       -2.8801886149
 H        -7.6181796423        0.1030517986       -0.4214055689
 H        -6.9499469644        1.4885544880        0.4956163846
 H        -5.9790895394        0.1801086555       -0.3015301341
 H        -1.5115356448        5.1653871335       -5.4774291581
 H        -1.3624252001        4.0087319768       -4.2624352836
 H        -2.4824167050        5.4556494983       -3.9961291357
 H        -4.4734942600        5.1474859284       -6.2414767461
 H        -4.7488602212        3.4169645414       -6.6884297005
 H        -3.3611394748        4.4291328105       -7.3005428861
 Na      -12.9985208600        4.8660088292        1.0567201701
