117

 C        -3.7149523528        1.4664411996       -7.0026478603
 C        -2.6848287208        2.3629738850       -6.2814714559
 O        -1.4971988513        2.1384011458       -6.2956623674
 C        -3.3140858109        3.5934304884       -5.2695614855
 C        -4.0671722032        2.8778020894       -4.1338916854
 O        -5.2865254339        2.8372664674       -4.2536198733
 C        -3.2211966627        2.1734848570       -3.1232899270
 C        -4.0898794749        1.3059084070       -2.2275365270
 C        -5.2501079448        2.1066298751       -1.5379118838
 O        -5.0086710673        3.0279305930       -0.8110052209
 C        -6.7643523182        1.4688315858       -1.6155052466
 C        -7.7625597450        2.7064322643       -1.5326473092
 O        -8.6320322678        2.6571174527       -0.6914378622
 C        -7.6042568138        3.9050467375       -2.5542166990
 C        -8.7192319838        4.9105149172       -2.6606054683
 C       -10.0449642422        4.3175230303       -3.1326848722
 O       -10.2084938988        3.1706516529       -3.5416910252
 C       -11.2701383290        5.2600703194       -3.2609684516
 C       -12.2480219989        4.8280161866       -2.1687746107
 O       -12.5096659619        5.5461436579       -1.2275314638
 C       -12.7582092290        3.4048821694       -2.2144007394
 C       -11.8972746380        2.4952198356       -1.3217979168
 C       -12.6401920302        1.9300332394       -0.0643921635
 O       -13.7230237172        2.3519594309        0.3379655641
 C       -11.8037649388        1.0217131573        0.8982935550
 C       -10.9971379070        2.1524334798        1.7692490710
 O       -11.4963825618        3.2553822176        1.8422402693
 C        -9.6626201302        1.7671547340        2.4488307967
 C        -9.0517405107        3.0264914780        3.0865369084
 C        -9.9435354297        3.4533520943        4.3372676616
 O       -10.4467785275        2.6020125075        5.0730695885
 C       -10.5706973799        4.8603622387        4.6196462119
 C       -12.0496408228        4.8420066766        4.1012453523
 O       -12.4834338093        5.5118292574        3.1797662453
 C       -12.9931021345        3.9538856801        4.9887312222
 C       -14.5084381295        4.1340583554        4.6067458173
 C       -15.0539636609        5.5767410541        4.9585705437
 O       -14.7109014301        6.1383321152        5.9959008420
 C       -15.9955400307        6.4728769742        3.9139577846
 C       -15.0690307091        6.6857255214        2.6452038616
 O       -14.9924989297        5.7388098811        1.8463919311
 C       -14.2608761839        7.9499277707        2.5327536462
 C       -17.1728960739        5.7030731976        3.4661077966
 C       -16.3887144321        7.8270839125        4.4596170245
 C       -10.4073217470        5.0657961018        6.2018904374
 C        -9.8029373465        6.0215587447        3.9449933943
 C       -12.7116630608        0.1340262966        1.7465545814
 C       -10.7178810049        0.2292258901        0.1864711795
 C       -10.9788729469        6.8120480072       -3.0697815311
 C       -11.9644435941        4.9308651537       -4.6330828644
 C        -6.9001560405        0.6605250769       -2.9341153573
 C        -7.0468296405        0.4698193720       -0.4018445826
 C        -2.0913004912        4.3885643825       -4.8174177682
 C        -4.2284570989        4.4557721898       -6.1271400883
 H        -3.2338700644        0.4812900477       -7.2075760948
 H        -4.1635316849        1.8568084866       -7.9299225980
 H        -4.4920811399        1.2800844933       -6.2039085005
 H        -2.5934419122        2.9090176623       -2.6309662428
 H        -2.5028630009        1.5310894235       -3.6250355012
 H        -3.4480545464        0.9191146517       -1.3667042612
 H        -4.4640384795        0.3876379229       -2.7165798655
 H        -7.4517975869        3.4167144245       -3.5303096164
 H        -6.6649225499        4.4052230322       -2.2855436939
 H        -8.3639405610        5.6710980787       -3.3642249591
 H        -8.8868416855        5.4340840980       -1.6904918289
 H       -12.6114994465        2.9651330040       -3.2412355586
 H       -13.8318976557        3.4381010141       -1.9024403165
 H       -11.0310566753        3.0585929180       -1.0023966986
 H       -11.5183725974        1.6996825784       -1.9459463508
 H        -8.9466571656        1.3426071461        1.7270591753
 H        -9.8657265395        1.0489804401        3.2387662936
 H        -8.8952299999        3.8273592766        2.4164340317
 H        -8.1085551492        2.7540138853        3.5429761795
 H       -12.8572511782        4.1712227813        6.0224964010
 H       -12.7143262852        2.9214507027        4.9369390502
 H       -15.0525722795        3.3610070744        5.1878658621
 H       -14.7477748798        3.8459451075        3.6065031022
 H       -14.9565372301        8.7510418832        2.2856274398
 H       -13.5327457327        7.9728282921        1.7542970998
 H       -13.7209209272        8.1820078180        3.4406272695
 H       -18.0693144511        5.5757543396        4.1699781597
 H       -16.8327285272        4.7001651931        3.1096436732
 H       -17.6055814190        6.1760468595        2.6088019517
 H       -17.0913346859        8.3808236635        3.7863612643
 H       -15.6707740261        8.4908537196        4.9034014285
 H       -16.9558242389        7.5945974497        5.3258696212
 H       -10.8985008918        5.9230116895        6.5459118249
 H        -9.4050127293        5.0167053799        6.5085352148
 H       -10.8692808214        4.1683218862        6.8168133836
 H        -9.8818206776        5.9021001097        2.8513342305
 H        -8.7547442914        6.0421484292        4.2714785367
 H       -10.1997395034        6.9611817910        4.1207356795
 H       -12.9453771644       -0.7842874367        1.3288940932
 H       -13.7039606626        0.5596698165        1.8537547608
 H       -12.3225712479        0.0196656163        2.7505728688
 H       -10.2161090087        0.8391782658       -0.4810356579
 H       -11.2648331339       -0.5631687766       -0.4126182923
 H       -10.0492675001       -0.1956136706        0.9259949027
 H       -11.8942763323        7.4790275008       -3.1914961406
 H       -10.2084607480        7.0770561092       -3.8484092771
 H       -10.5209008005        6.9835990012       -2.0683339327
 H       -12.9623694653        5.3657016268       -4.7282891498
 H       -12.1274938366        3.8615531880       -4.7960770710
 H       -11.3159992002        5.3919889417       -5.4375339481
 H        -6.3960662158       -0.3092864290       -2.7436774725
 H        -6.4967930168        1.2301357966       -3.7850722766
 H        -7.9284294881        0.4516373805       -3.0938734466
 H        -8.1099018743        0.3575175693       -0.3151228870
 H        -6.7326457649        0.9056293045        0.5585141164
 H        -6.6262815957       -0.5174937678       -0.4280177664
 H        -1.5453384205        4.7709451193       -5.6957503170
 H        -1.3550537843        3.8243915591       -4.2310616242
 H        -2.4647274848        5.1912679030       -4.1657855155
 H        -4.7218708056        5.1539972653       -5.4952882405
 H        -5.0899163230        3.8270926048       -6.5057296348
 H        -3.7287864552        5.0205766331       -6.9053383878
 Na      -13.3887387350        4.5307233259        0.8918054890
