117

 C        -4.5342657585        2.4140929665       -7.4672510298
 C        -3.4011716039        2.3113984808       -6.4668127027
 O        -2.5580220977        1.4536808628       -6.4628612365
 C        -3.3828730867        3.5173139705       -5.2998260815
 C        -4.2374398050        2.6375091791       -4.1881350066
 O        -5.4733750856        2.8067247854       -4.1136231935
 C        -3.3490875188        1.8438759177       -3.2355167126
 C        -4.1863793919        1.0762657834       -2.1970314010
 C        -5.1896874794        1.9568597221       -1.4232067634
 O        -4.9544219879        2.9921171653       -0.8248982755
 C        -6.6668383783        1.3511236627       -1.2810037127
 C        -7.8311621073        2.3514373164       -1.1334693251
 O        -8.8633341515        2.0370444167       -0.5765626968
 C        -7.5413327633        3.6773333799       -1.8130714725
 C        -8.7593182086        4.6044665128       -1.8594726506
 C        -9.7619293284        4.1463686925       -2.8969354906
 O        -9.7062389341        3.1146471495       -3.5253622948
 C       -11.0793859323        5.0089194671       -3.0784962930
 C       -12.1060825725        4.3317883457       -2.0915825062
 O       -12.0961462218        4.7742181517       -0.9714975772
 C       -12.7329596969        2.9492953231       -2.4136465444
 C       -12.1470287397        1.9503192588       -1.4169054779
 C       -12.5424733978        2.1981324900        0.0075496374
 O       -13.4897933867        2.9262560133        0.3258420921
 C       -11.7753354685        1.4025730641        1.0911431492
 C       -10.7036182403        2.3871904820        1.6646801655
 O       -10.7560800722        3.5811133664        1.3926189157
 C        -9.5961902325        1.8039105778        2.5637636530
 C        -8.9826239174        2.9837816998        3.3061776004
 C       -10.0845380148        3.4902081138        4.3349068254
 O       -10.6360883405        2.6168303853        5.0189661988
 C       -10.4582792834        4.9760937657        4.5313505496
 C       -11.9810106145        5.0594024538        4.1135928838
 O       -12.3715638444        5.7474917386        3.1906063156
 C       -13.1131265697        4.3455064041        4.9866638342
 C       -14.5274919904        4.6804029193        4.5000594987
 C       -14.8428623712        6.1707766570        4.4907264205
 O       -14.2417727994        7.0234195007        5.0376697170
 C       -16.0428169618        6.5781518154        3.5090940170
 C       -15.3176920080        6.6251171657        2.1089606747
 O       -15.3017278177        5.5494825925        1.5116587809
 C       -14.7186446993        7.8648973148        1.4192931437
 C       -17.2544299408        5.6424249990        3.4095398395
 C       -16.5098995486        7.9591349310        3.9505215136
 C       -10.2164035226        5.3514491306        6.0273009883
 C        -9.6697824636        5.9582830469        3.6910362847
 C       -12.7334616323        1.1435169541        2.2591611893
 C       -11.0770438782        0.0732191211        0.6438114598
 C       -10.9103605458        6.4595374148       -2.5215586162
 C       -11.5780514189        4.8295612309       -4.4839782456
 C        -7.1718285910        0.5262558876       -2.5698656184
 C        -6.5355934455        0.2466968415       -0.1209593697
 C        -1.8766322900        3.7529078283       -4.9004207362
 C        -4.0828623086        4.8282161008       -5.7692490688
 H        -4.6642905821        1.4596420982       -7.9805968805
 H        -4.4421060958        3.2611167450       -8.1406415622
 H        -5.3688160625        2.5132052858       -6.8816585167
 H        -2.7345193079        2.6368808392       -2.7610183295
 H        -2.5764045555        1.1355056723       -3.5655570862
 H        -3.5995185773        0.6040329114       -1.3954783443
 H        -4.8031377918        0.3531925378       -2.7074671396
 H        -7.1941974633        3.4685743213       -2.8426005096
 H        -6.7302374741        4.1071730751       -1.2033897679
 H        -8.4118685998        5.6369977210       -1.9510469004
 H        -9.3199640988        4.6068923812       -0.9207108085
 H       -12.4938625927        2.6042159769       -3.3957484035
 H       -13.8180500830        3.0046943444       -2.2825412284
 H       -11.0478852663        1.8691425234       -1.5486711759
 H       -12.4553184987        0.8892566778       -1.6136262007
 H        -8.8136614889        1.3741659717        1.9207174689
 H        -9.9717193045        1.0010861198        3.1913227114
 H        -8.5823662713        3.7753520661        2.6035562510
 H        -8.1195318263        2.7416007038        3.8934743949
 H       -13.1855663081        4.8680392931        5.9759298106
 H       -12.8756996149        3.2792500115        5.1903572748
 H       -15.1600027496        4.3212644742        5.3254328046
 H       -14.7915869327        4.1620308339        3.5846053716
 H       -15.5113343640        8.6759147364        1.3723321942
 H       -14.4605163095        7.5676133884        0.3733986400
 H       -13.9218815709        8.3978146659        1.9027643375
 H       -17.4332766891        4.9763983999        4.2237525544
 H       -17.2389890003        4.9407591235        2.5656182081
 H       -18.2103177383        6.1355734780        3.2423776216
 H       -17.0902715193        8.5075714238        3.2235399447
 H       -15.7525684895        8.7150029821        4.1654888004
 H       -17.2273578392        7.9333026499        4.8260145956
 H       -10.4726413373        6.4053344802        6.2257647519
 H        -9.1448838484        5.3469318055        6.3038332961
 H       -10.7815835446        4.8319004407        6.6736206259
 H        -9.7499864016        5.7455586631        2.6261375435
 H        -8.5799196317        5.8906204304        3.8859066861
 H       -10.0470817323        6.9606565862        3.9230765615
 H       -13.0644463970        0.1217480418        2.2809690913
 H       -13.6087194738        1.8470907468        2.3185082704
 H       -12.2656351301        1.2385495977        3.2654165798
 H       -10.0169070806        0.1732769131        0.3796369144
 H       -11.5965240030       -0.4146484677       -0.2081016717
 H       -11.1338051474       -0.6986994849        1.4300535637
 H       -11.8695155769        6.9476796939       -2.6139445254
 H       -10.1925346059        7.0161641452       -3.0001825085
 H       -10.7125926624        6.4392498611       -1.4735511390
 H       -12.6727630032        4.9467180026       -4.6690270953
 H       -11.2564044837        3.8766246615       -4.8148504967
 H       -11.1163341839        5.4438508673       -5.1989076647
 H        -6.8168806429       -0.4659094655       -2.5099021776
 H        -6.9629874576        0.9457403607       -3.5941478422
 H        -8.2359209024        0.4552030900       -2.2720598334
 H        -7.4538216931       -0.3556048257        0.0733806302
 H        -6.2931264404        0.6863659854        0.8437861540
 H        -5.7609432562       -0.4942247906       -0.3725688455
 H        -1.4041212589        4.4555316010       -5.6073726855
 H        -1.3499988143        2.8012620600       -4.7518657824
 H        -1.8760075892        4.3058233576       -3.9976656169
 H        -4.1217785184        5.5169019277       -4.9138372500
 H        -5.0887499598        4.6060058179       -6.1356816360
 H        -3.6195525628        5.3844322008       -6.5587947096
 Na      -13.1983305719        4.8602433381        1.1113430649
