117

 C        -4.5748617220        2.5368884361       -7.5282663513
 C        -3.4849851579        2.3846664454       -6.4628232992
 O        -2.7799572988        1.4103619648       -6.4830336481
 C        -3.3844720857        3.4040807717       -5.3058447436
 C        -4.1374561640        2.7595555038       -4.0891288694
 O        -5.3522438640        2.8198114083       -4.0927464852
 C        -3.4009528016        1.9220789515       -3.2200245565
 C        -4.2248131083        1.0027608512       -2.2576676767
 C        -5.2342131880        1.8382541172       -1.4885478409
 O        -4.8326442096        2.8053272030       -0.8581423140
 C        -6.7067860012        1.2694131984       -1.2824406243
 C        -7.7653847480        2.2739696547       -1.0117987096
 O        -8.8595461089        1.9739669189       -0.4993636612
 C        -7.5428756667        3.7030958305       -1.6053738084
 C        -8.8485379771        4.5423263971       -1.7952134720
 C        -9.7538566099        4.0705783585       -2.9026718254
 O        -9.5530807824        3.1124735972       -3.6145688346
 C       -11.0901587700        4.9191754647       -3.0502638976
 C       -11.9678233850        4.3009932126       -1.9390823061
 O       -12.1584042189        4.9654758823       -0.8987558821
 C       -12.6778146814        3.0063629050       -2.2733031712
 C       -12.0390686561        1.9010049501       -1.4379382782
 C       -12.6407803857        1.9837871134       -0.0007024434
 O       -13.5500596888        2.8077903191        0.1646836130
 C       -11.8065123275        1.4032190127        1.1737783414
 C       -10.6860093667        2.4753730631        1.5454053239
 O       -10.7617703095        3.6793301670        1.3824263396
 C        -9.6543983509        1.8797134802        2.4518410758
 C        -9.0105830124        2.9797694493        3.2894203593
 C       -10.0748931269        3.4205462152        4.3605711521
 O       -10.5964277245        2.5715355563        4.9881237437
 C       -10.5126178871        4.9973148460        4.5409220116
 C       -12.0899763416        5.1874766523        4.2205987383
 O       -12.3357332891        5.7215028985        3.1516560418
 C       -13.1332616374        4.5177305253        5.1337291665
 C       -14.5736908704        4.7683531691        4.5919733719
 C       -14.8909190060        6.3016432679        4.4608954150
 O       -14.1219441197        7.0778259528        4.9755359597
 C       -16.1092341719        6.6553388900        3.4230320880
 C       -15.4092538145        6.6569790057        1.9706837827
 O       -15.2152303769        5.5883462599        1.4351233894
 C       -14.9202443419        7.9116780355        1.3786829551
 C       -17.1604476632        5.6051810536        3.5123691371
 C       -16.6032729122        8.0763092065        3.7168103813
 C       -10.2526518598        5.3714930656        5.9555380048
 C        -9.6036182915        6.0272533238        3.6825365944
 C       -12.6403742245        1.1703781980        2.4285683777
 C       -11.1322453797        0.0781543070        0.7124564075
 C       -10.7680359300        6.4279888901       -2.7422460587
 C       -11.6898729080        4.8309900534       -4.4789530214
 C        -7.2157768142        0.4731464566       -2.5641911742
 C        -6.5141072290        0.3678777844       -0.0750259083
 C        -1.9192934322        3.6923983472       -4.9759454446
 C        -4.0691590659        4.6657932502       -5.6391930229
 H        -4.6483637794        1.6556553392       -8.1237496735
 H        -4.3800111148        3.4618558186       -8.0811114252
 H        -5.5219166114        2.6757559542       -7.0018135027
 H        -2.6051330831        2.4627856086       -2.7200162984
 H        -2.7938443127        1.2087869348       -3.7939138323
 H        -3.6053113251        0.5424304756       -1.4360899943
 H        -4.7782927849        0.2163909971       -2.8295285089
 H        -7.1328623405        3.4986802319       -2.6095392926
 H        -6.8081928697        4.2584602918       -0.9725001860
 H        -8.4867641459        5.6043826495       -2.0415373713
 H        -9.4095058826        4.6855021443       -0.9112323516
 H       -12.5950108776        2.7317467380       -3.3371296600
 H       -13.7717585691        3.0811995003       -1.9881164300
 H       -10.9382390655        1.9156890933       -1.4775490540
 H       -12.2366544752        0.9333583962       -1.8862596177
 H        -8.8799941903        1.3719432744        1.9127515821
 H       -10.1810547468        1.1012477884        3.0274444747
 H        -8.6136513638        3.7797166721        2.6710280969
 H        -8.1864206080        2.6703826036        3.8510276418
 H       -13.0403227270        4.6696091693        6.2141735502
 H       -12.8767641426        3.4959482108        4.9487905727
 H       -15.2603608968        4.1690958658        5.1307664352
 H       -14.4692611928        4.3556226252        3.5811289625
 H       -15.5869939904        8.7681452258        1.2467839705
 H       -14.4509920468        7.6381035317        0.4190519544
 H       -14.1867313859        8.3586908447        2.0581459832
 H       -17.5599899195        5.3218210485        4.4468744841
 H       -16.9414505703        4.6618591220        2.9849215587
 H       -18.0751739819        5.8977754387        2.8883759422
 H       -17.1699328013        8.6611737959        3.0575270869
 H       -15.7969571041        8.7516208131        3.9615050434
 H       -17.2833874538        8.0523167319        4.6079446806
 H       -10.5881838873        6.3564861302        6.1947032613
 H        -9.2160958638        5.3952122886        6.2177781721
 H       -10.7794460389        4.7397449646        6.6486485369
 H        -9.6497775625        5.8558334541        2.6255493458
 H        -8.5752481844        5.7581470575        3.8602944893
 H        -9.8002607412        7.1249868795        3.9518990573
 H       -13.2129067497        0.2061661568        2.3774723387
 H       -13.2702181894        1.9731687565        2.6818378754
 H       -12.0636544778        1.0231679802        3.2984137639
 H       -10.1462938078        0.2964043679        0.1239049983
 H       -11.7446919073       -0.4403858621        0.0355381676
 H       -10.8798160321       -0.6314131133        1.5124760662
 H       -11.6276654975        7.0136278040       -2.9427677452
 H        -9.9800242793        6.7192492475       -3.4525521754
 H       -10.5258080808        6.7051245944       -1.7096412231
 H       -12.7887803069        4.7541934709       -4.5040128717
 H       -11.3102743383        3.9415367085       -4.9941443555
 H       -11.4716619987        5.6277013450       -5.1324850534
 H        -6.5668043900       -0.4002875447       -2.6869463739
 H        -7.1607290143        1.1311690421       -3.4409083489
 H        -8.2528093333        0.0715433511       -2.3041311792
 H        -7.4497456544       -0.2220974532        0.0373567086
 H        -6.4506757089        0.9293214533        0.8295921849
 H        -5.7240193589       -0.3828086478       -0.1458858249
 H        -1.5750947714        4.4034806515       -5.6989954632
 H        -1.3321995117        2.7964180435       -4.9778505305
 H        -1.8662865511        4.2610606831       -4.0725803287
 H        -3.8154376329        5.3935323093       -4.8252950166
 H        -5.0827264692        4.5880420290       -5.8453836648
 H        -3.6265207962        5.1261171603       -6.5202192744
 Na      -13.0812648771        4.7116036807        1.1684939301
