117

 C        -4.6882443805        2.8661822322       -7.7196795016
 C        -3.8406014933        2.3142045168       -6.5190088260
 O        -3.2428291270        1.2730068352       -6.5060233228
 C        -3.4462931680        3.3918002885       -5.2856359399
 C        -4.0566579092        2.7454346962       -3.9511563736
 O        -5.2794782829        2.9508607500       -3.7883037069
 C        -3.2720683820        1.7379562946       -3.1326440648
 C        -4.1815653943        0.7668886317       -2.4243248194
 C        -5.2418425348        1.6345178000       -1.5851201839
 O        -4.8439287961        2.5583519233       -0.8865368610
 C        -6.6963782333        1.0410099588       -1.2882861047
 C        -7.7190456794        2.1615138401       -1.0716848067
 O        -8.7448511988        1.9208523313       -0.4819979497
 C        -7.4391431115        3.6603732156       -1.6005730274
 C        -8.8144501675        4.4422704282       -1.6095255012
 C        -9.6061610466        4.1591640054       -2.8805443273
 O        -9.2886210544        3.3121518036       -3.6857767101
 C       -10.9097125343        4.9812212999       -3.1746124341
 C       -11.9664328954        4.5575524445       -2.0933475631
 O       -12.1483111987        5.2797742690       -1.1077837506
 C       -12.6700130979        3.1855281073       -2.1550071354
 C       -11.9620140352        2.1366117281       -1.2208938354
 C       -12.6849630419        1.7866163315        0.1505201382
 O       -13.8936570101        2.0040905134        0.3815071702
 C       -11.8081950953        1.3043183975        1.3329556475
 C       -10.6429750582        2.4027705016        1.6419808817
 O       -10.8771403612        3.5870726746        1.4128923881
 C        -9.3083592442        2.0344122978        2.4381928404
 C        -8.9575953935        3.1159663375        3.4196119264
 C       -10.2330211288        3.5391302683        4.3472269217
 O       -10.8087722729        2.6769232587        4.9367996791
 C       -10.4745530664        5.1050260504        4.6493246043
 C       -11.9665370162        5.3575896753        4.1981737123
 O       -12.2525837461        5.4910349018        3.0301605484
 C       -13.0317812244        5.0661230426        5.2609254602
 C       -14.4759747661        5.1413112251        4.6313500822
 C       -14.9063374880        6.6081434775        4.3246247675
 O       -14.2236132098        7.5214347404        4.6981632424
 C       -16.1380452705        6.7802510793        3.3689644481
 C       -15.3570649710        6.6300541389        1.8686150015
 O       -14.9621462302        5.5491843399        1.4452354836
 C       -15.1098828405        7.9016939360        1.0616993088
 C       -17.1883718225        5.5862860834        3.3957685968
 C       -16.6784355585        8.1520053193        3.6807089540
 C       -10.2195971386        5.3898613107        6.1485097120
 C        -9.6179888443        6.1480950250        3.8014663916
 C       -12.7022520863        1.2170241832        2.5961246645
 C       -11.2038769027       -0.0911534741        1.0757333469
 C       -10.6738038700        6.5244760375       -3.1542722847
 C       -11.4381144421        4.5913359331       -4.6092778581
 C        -7.2980515822        0.1412840054       -2.3774644108
 C        -6.6823255127        0.0763822920       -0.0019287986
 C        -1.8750089192        3.5395879796       -5.2439722451
 C        -4.0429543698        4.8008020733       -5.4619550655
 H        -4.7833954503        2.0564831857       -8.4394921917
 H        -4.3418572244        3.8448488993       -8.1359674275
 H        -5.6381747235        3.1021403411       -7.3092534377
 H        -2.6397429260        2.1875032447       -2.3473319585
 H        -2.5088746861        1.2103645648       -3.7448563795
 H        -3.7639456736        0.0216900734       -1.7713911107
 H        -4.7556718730        0.2092130948       -3.1241655715
 H        -6.9784028310        3.5995116726       -2.5978001508
 H        -6.7183193087        4.0655182618       -0.8835206488
 H        -8.7343869028        5.5307842266       -1.4639470743
 H        -9.3477474439        4.1034990394       -0.7215851619
 H       -12.7786181735        2.7883311803       -3.1139662174
 H       -13.6714539231        3.2199423900       -1.7633338971
 H       -10.9063148599        2.3988957694       -0.9972022934
 H       -11.8669073147        1.2050705207       -1.8244373939
 H        -8.5090282891        1.8569056332        1.7027624161
 H        -9.4315581068        1.0768131864        2.9629706148
 H        -8.4730350303        4.0685700554        2.9724261156
 H        -8.2071649423        2.7175326186        4.1070683927
 H       -12.8857414950        5.7022041249        6.1894233422
 H       -12.9595165543        4.0151624673        5.6243621203
 H       -15.0785450558        4.5437683272        5.3294369370
 H       -14.3681111091        4.5024039522        3.7342363309
 H       -16.0966497432        8.2648997916        0.6767393213
 H       -14.4912096560        7.7434972805        0.1633423605
 H       -14.8077218225        8.7631478652        1.5972015776
 H       -17.6842736639        5.5913335905        4.2887360274
 H       -16.8811633918        4.5690923587        3.2132256495
 H       -18.0067047771        5.6442985229        2.6902934505
 H       -17.5696722824        8.4035682600        3.1787320736
 H       -16.0128496276        8.9704420301        3.4534691897
 H       -17.0843638963        8.2841160345        4.7329781754
 H       -10.6347279047        6.4045564905        6.3978214988
 H        -9.1309310749        5.3937675695        6.4762000319
 H       -10.6803317722        4.7227330850        6.8103641613
 H        -9.5562423789        5.8870038640        2.7841661390
 H        -8.5892455326        6.2472480467        4.0995761499
 H       -10.1403156054        7.1162481455        3.9126480108
 H       -13.7045002222        0.7717965560        2.3551604887
 H       -12.8550678547        2.2261170987        3.0527990839
 H       -12.2767401808        0.6065822811        3.4063916635
 H       -10.8948938742       -0.2041211887        0.0041194598
 H       -11.8525104134       -0.9082552172        1.1582230596
 H       -10.3170987278       -0.2283973468        1.6687712005
 H       -11.6206821077        6.9841315377       -3.4186558005
 H        -9.8940939962        6.8616555898       -3.7994485234
 H       -10.5457048572        6.8850872769       -2.1282677608
 H       -12.5231338531        4.8166201829       -4.8782917072
 H       -11.4475578121        3.5039350022       -4.7490191148
 H       -10.8527152658        5.0523279858       -5.3569406467
 H        -6.8479417644       -0.7784648061       -2.3297621218
 H        -7.2380984570        0.6607138047       -3.3289718256
 H        -8.3718210308       -0.0045724844       -2.1241845537
 H        -7.6833526042       -0.1836610572        0.3948648430
 H        -6.0900460080        0.4333989643        0.8025778326
 H        -6.2553175489       -0.8649101914       -0.3487179997
 H        -1.5129315482        4.0829636794       -6.1726752156
 H        -1.4080068525        2.5267752339       -5.3337104117
 H        -1.6032836140        4.1325360709       -4.3863216584
 H        -3.7298902551        5.5911514812       -4.7114692444
 H        -5.1175039958        4.7369542927       -5.4498348767
 H        -3.7683153891        5.2107313491       -6.4319286263
 Na      -13.1144024988        4.4902804976        1.0166664645
