117

 C        -4.8127208476        3.1908922629       -7.6054201410
 C        -4.1992504972        2.5467570203       -6.4333013079
 O        -4.1174252073        1.3116426430       -6.4172125979
 C        -3.5149662149        3.3328289055       -5.3584443637
 C        -4.2353400728        2.6294849517       -4.0516173632
 O        -5.2855709113        3.0253336724       -3.6272220882
 C        -3.4467969065        1.5539577971       -3.3833016778
 C        -4.3386805653        0.5618688451       -2.5686371057
 C        -5.2863638860        1.1840060043       -1.5418653187
 O        -4.8433448695        2.0562075805       -0.8447254995
 C        -6.7215703402        0.8234424893       -1.3597559368
 C        -7.6472328333        1.9953558053       -1.0152883027
 O        -8.7871802674        1.7278741776       -0.5363519626
 C        -7.3581201445        3.4177829054       -1.3653790974
 C        -8.6491299916        4.1962225034       -1.7263919982
 C        -9.4057436632        3.8853111609       -3.0121421704
 O        -9.1008259111        3.1063421509       -3.8846165822
 C       -10.7568373326        4.7504614797       -3.1837101776
 C       -11.6996579596        4.3279427324       -1.9724595680
 O       -12.0591955107        5.1990121366       -1.1791504393
 C       -12.1436040150        2.8596007519       -2.0031944117
 C       -11.6887858882        1.8371393496       -0.9231815869
 C       -12.5099851762        1.8697373695        0.3520925399
 O       -13.4888175039        2.5435735597        0.4335622384
 C       -11.8195870948        1.2075652962        1.6089904649
 C       -10.8362341366        2.3580977983        2.0160849038
 O       -11.0259620272        3.4877669384        1.6592560143
 C        -9.4460577895        2.0278971529        2.7238739690
 C        -9.0583142042        3.2294444868        3.5946519101
 C       -10.2037971310        3.7417970093        4.4435502954
 O       -11.0008174158        2.9682608729        4.9570439194
 C       -10.4624384017        5.3771557801        4.6734510960
 C       -11.9312569539        5.5652268383        4.2507864654
 O       -12.2126825665        5.6549616410        3.0486492148
 C       -13.0651991456        5.8291840492        5.2440527184
 C       -14.4219482540        5.7519217922        4.6220189285
 C       -15.0107586384        7.0967744792        4.0962915556
 O       -14.5071816422        8.1379845922        4.4674679614
 C       -16.1798324984        6.9268175831        3.0278758926
 C       -15.3929370553        6.5295254338        1.7222989294
 O       -14.9012596957        5.4193061771        1.6139364232
 C       -15.2759051744        7.5436793530        0.6205333021
 C       -17.0406535962        5.7947519512        3.4293464530
 C       -16.9354957367        8.3560343457        3.0082828629
 C       -10.2501759942        5.6818193275        6.1391428777
 C        -9.6058689067        6.3554615839        3.8864313561
 C       -12.8198626102        0.8087312215        2.6730285666
 C       -10.9751271798       -0.0260985411        1.2619191766
 C       -10.3333822412        6.2451060106       -3.1674387981
 C       -11.5386328637        4.6022500414       -4.4920779084
 C        -7.3073720382        0.0677767902       -2.6088876310
 C        -6.7473159557       -0.2365930270       -0.1625636782
 C        -1.9686181307        3.1405287831       -5.3822305265
 C        -3.8864498795        4.8199670409       -5.3592681805
 H        -5.0020734056        2.4621811902       -8.3866856346
 H        -4.1303279087        3.8703021790       -8.0739815117
 H        -5.6963881176        3.8809309314       -7.3926946663
 H        -2.7460922670        2.0277132228       -2.6647085941
 H        -2.8351336418        0.8650669247       -3.9902174651
 H        -3.7197090436       -0.0943095669       -2.0132339728
 H        -4.8822206837       -0.1086790490       -3.2242035421
 H        -6.5307253139        3.4448083280       -2.0713543222
 H        -6.9966562169        3.9138975303       -0.4288117708
 H        -8.2240293648        5.2473361430       -1.8300404625
 H        -9.2786338691        4.2495601572       -0.8871425664
 H       -11.8457063191        2.4620228253       -2.9489430098
 H       -13.1998928638        2.8910342482       -2.0569228747
 H       -10.6032892673        2.0469391708       -0.7555470049
 H       -11.8168627167        0.8386519974       -1.3663574810
 H        -8.6770334836        1.7799603034        2.0028632385
 H        -9.6590257433        1.0847317843        3.2939668631
 H        -8.8637517084        4.0428568628        2.9070769943
 H        -8.1502067702        3.0084453918        4.2397573311
 H       -13.0023044327        6.9139541784        5.6107636053
 H       -12.8667196224        5.2406946271        6.1688732225
 H       -15.1966412997        5.4313949444        5.3074709153
 H       -14.3601998229        4.9409532627        3.8524403071
 H       -16.1651132763        7.7403012379        0.0684433604
 H       -14.5720783246        7.1708818502       -0.1077489930
 H       -14.8724723540        8.5660512476        0.8273247585
 H       -17.5746997980        5.9426686171        4.3703580068
 H       -16.4593908298        4.9511872770        3.6397651703
 H       -17.7922696990        5.5035831043        2.7390698620
 H       -17.8489819008        8.4390949903        2.3635237616
 H       -16.2832970550        9.1639305847        2.6246588690
 H       -17.1570557650        8.7757720867        3.9395021519
 H       -10.7810679194        6.5978228974        6.4580794345
 H        -9.1945057208        5.7810642875        6.4051780548
 H       -10.6386393028        4.8494514996        6.8192032378
 H        -9.6845049373        6.2161446472        2.8124531218
 H        -8.6466511340        6.2017146201        4.2792037602
 H        -9.8079167274        7.4015853958        4.0659367490
 H       -13.4949387617        0.0565440612        2.2172216401
 H       -13.4934160609        1.5799830708        3.0638136229
 H       -12.2321074842        0.3446200522        3.5008537851
 H       -10.1537932620        0.1845005765        0.6033060795
 H       -11.5567697927       -0.8492672243        0.8172338564
 H       -10.5537537384       -0.5233077611        2.1261223027
 H       -11.2298773982        6.8278344544       -3.2923233251
 H        -9.7451707762        6.5240993534       -4.0871487249
 H        -9.7106753998        6.5566663394       -2.3370880978
 H       -12.5672448247        4.7728047217       -4.4175197990
 H       -11.5672892309        3.5923032228       -4.9705917654
 H       -11.1613299606        5.3591977721       -5.2356349842
 H        -6.9364578737       -0.9786431485       -2.6609451979
 H        -7.2184195746        0.6287782858       -3.4776680959
 H        -8.3407954425        0.0611766547       -2.4331324726
 H        -7.7228440093       -0.6782450475       -0.2631401383
 H        -6.6284704588        0.1284835949        0.8529605694
 H        -5.9941696609       -1.0026620896       -0.2575026592
 H        -1.5769632871        3.7563683506       -6.1869880936
 H        -1.7049753599        2.0865523179       -5.5568198720
 H        -1.5545454226        3.4487604668       -4.3703765366
 H        -3.3360887192        5.4120204139       -4.6373945272
 H        -4.9098661028        4.9853328593       -5.0462726101
 H        -3.7059752757        5.2794691050       -6.3461528068
 Na      -12.8375119480        4.6177091096        1.0190942168
