117

 C        -4.8690188740        3.2700136835       -7.6623614173
 C        -4.2038685967        2.4756327556       -6.5278461223
 O        -4.2153139307        1.2758388336       -6.4601942971
 C        -3.5415582027        3.3474957738       -5.2702600774
 C        -4.1123343485        2.6753066573       -3.9657305489
 O        -5.2759220218        3.0393205387       -3.7469779946
 C        -3.4170921903        1.4890132555       -3.2892776277
 C        -4.3549976045        0.4552406791       -2.6325067859
 C        -5.2227748909        1.1877104177       -1.5604878043
 O        -4.8026999975        2.0473718359       -0.7950885727
 C        -6.8027334639        0.6756124129       -1.4023966805
 C        -7.7098796640        1.8867825645       -1.0280629558
 O        -8.6959147853        1.6901392060       -0.3651817416
 C        -7.3230416719        3.3482072785       -1.4299225926
 C        -8.6259038482        4.1549294790       -1.7315389923
 C        -9.4175310771        3.8828298028       -3.0792895225
 O        -9.1351312385        3.0069085177       -3.8834598137
 C       -10.7504197338        4.7587869870       -3.1907966289
 C       -11.6623502037        4.2670845128       -2.0123485414
 O       -11.9250321257        5.0348521789       -1.1131253726
 C       -12.2308967931        2.7920279332       -2.1394317221
 C       -11.7037510963        1.7328288321       -1.0638396954
 C       -12.4340619874        1.8639283436        0.2971590809
 O       -13.4136070044        2.6018968921        0.3891682496
 C       -11.7587492524        1.1654784086        1.5338102943
 C       -10.8355914207        2.3427788138        2.0646147340
 O       -10.9642976391        3.5430172904        1.7963174356
 C        -9.5762751713        2.0400972459        2.8474090888
 C        -9.0327595200        3.2723145021        3.6226957890
 C       -10.2154306818        3.8387945913        4.4862783172
 O       -10.8850987551        2.9490016956        5.0183486826
 C       -10.5059418988        5.3905479627        4.7404364627
 C       -11.9385373482        5.8260570556        4.2432559752
 O       -12.1831193160        5.8607873866        3.0419793671
 C       -13.0603242206        6.0113058679        5.3103856100
 C       -14.4084591607        5.8428731239        4.6782106333
 C       -14.9969990466        7.1708419561        4.1514374565
 O       -14.5341472369        8.2275928437        4.4049273233
 C       -16.1554296638        6.9750436890        3.0655748301
 C       -15.4171286474        6.5960240802        1.6826891018
 O       -15.0937921842        5.4292424352        1.6735822827
 C       -15.1613414180        7.3975958843        0.4296491159
 C       -17.1977185790        5.8599121069        3.3144283950
 C       -16.9501776351        8.2692849071        2.9170637887
 C       -10.3146740703        5.7406773636        6.2574426390
 C        -9.6041539455        6.2346580309        3.7452367056
 C       -12.8124588413        0.8142992822        2.6848517817
 C       -10.9434151104       -0.0494019546        1.1683457359
 C       -10.3500739818        6.2846049793       -3.0318261803
 C       -11.3962545164        4.4501892871       -4.5246082133
 C        -7.3834504374        0.1605416483       -2.6982192182
 C        -6.7364391905       -0.3223294276       -0.1738322606
 C        -2.0383891480        3.0715015733       -5.4137862198
 C        -3.9309210819        4.8612590257       -5.2588920632
 H        -5.2454746278        2.6470060568       -8.4624738721
 H        -4.1281755524        3.8414048801       -8.1647436818
 H        -5.5532123757        4.0091515036       -7.3435691104
 H        -2.7458101910        1.7853330763       -2.4590685595
 H        -2.8019074579        0.9323608129       -3.9836355255
 H        -3.7954664115       -0.3258806428       -2.0990762610
 H        -5.0359462227       -0.0830503486       -3.3113173460
 H        -6.6449797750        3.2103638852       -2.2917636937
 H        -6.7248869739        3.8443827228       -0.6348365831
 H        -8.3818328804        5.1869504075       -1.5620038135
 H        -9.3107110518        3.8930995769       -0.9007378735
 H       -12.1235117175        2.3770335600       -3.1566944713
 H       -13.2884100228        2.9465725497       -1.9913439985
 H       -10.6405546942        1.9792230843       -0.9079360823
 H       -11.8200702015        0.7168808474       -1.4897340774
 H        -8.8706961131        1.6665703907        2.0631446465
 H        -9.7371599742        1.1885203544        3.4931889980
 H        -8.5226177244        3.9677820002        3.0200653118
 H        -8.3739393095        2.8293330591        4.3725020605
 H       -12.9770593988        7.0151838544        5.7869892600
 H       -12.8204718166        5.3048398224        6.1557928520
 H       -15.2044993870        5.4229656643        5.2988128553
 H       -14.2738425069        5.0983012345        3.9003761618
 H       -16.0390681090        7.5754885329       -0.2193191227
 H       -14.3455843328        7.0269509392       -0.2217652515
 H       -14.8546215464        8.4174915342        0.6761954176
 H       -17.8613588382        5.9172936753        4.1982412245
 H       -16.7074883407        4.9047354760        3.4625631038
 H       -17.8529040012        5.8222527647        2.4857524072
 H       -17.9943756185        8.1507591367        2.5547527173
 H       -16.5686748024        9.1043975190        2.3197001322
 H       -16.9757389756        8.7570159439        3.8679005520
 H       -10.6146113320        6.7969535218        6.4766279118
 H        -9.2747209635        5.6024683052        6.6308842845
 H       -10.8977633533        5.1646123004        6.8301998395
 H        -9.7020416330        5.8807843719        2.7135683411
 H        -8.5902084360        6.3098942476        4.1355248856
 H        -9.9380693116        7.2109873305        3.7113423040
 H       -13.6647086417        0.2361958455        2.3681646103
 H       -13.2731053935        1.7715039705        3.1020489779
 H       -12.2279158470        0.3115649678        3.5289465905
 H       -10.3202800979        0.0562517673        0.3307285607
 H       -11.6196911242       -0.9670000298        1.0395219235
 H       -10.2833018082       -0.4247480654        1.9605521220
 H       -11.1814066338        6.8837408385       -3.3705505330
 H        -9.5439388666        6.5765227662       -3.6233921340
 H       -10.0684526549        6.5075983976       -2.0436836659
 H       -12.4846470797        4.3950066788       -4.5168890933
 H       -11.1298371106        3.5002567882       -4.9627089391
 H       -11.1701808653        5.2375198779       -5.2621274050
 H        -6.9262659957       -0.8129993141       -2.9291747946
 H        -7.2392563048        0.9260745859       -3.5034955913
 H        -8.4241579568        0.0352480397       -2.6079788346
 H        -7.7202439383       -0.5612505207        0.1575220929
 H        -6.2535121801        0.2627114550        0.6469451940
 H        -6.1149456936       -1.2064453022       -0.2665213824
 H        -1.8417001475        3.6695888651       -6.3175729706
 H        -1.9290556830        2.0070208325       -5.7039136094
 H        -1.3227394589        3.2877392519       -4.5769516769
 H        -3.4560349204        5.4698870844       -4.5382573533
 H        -5.0327052023        5.0986106452       -5.1176618352
 H        -3.6136542154        5.2165646819       -6.2473734908
 Na      -12.8359429534        4.7762401163        1.2007848612
