117

 C        -4.8772353245        3.3855971668       -7.6814852129
 C        -4.2829073847        2.4945389543       -6.5459187641
 O        -4.3810776310        1.2708966469       -6.6177497421
 C        -3.5368909405        3.2710448006       -5.2951115945
 C        -4.1206040546        2.5606319378       -4.0461132036
 O        -5.2194246299        2.8577818623       -3.6816799480
 C        -3.3614493323        1.5130466600       -3.3056228775
 C        -4.3643760635        0.5036646443       -2.7444777815
 C        -5.2900373373        1.1636068355       -1.5919916096
 O        -4.7951336984        1.9020001722       -0.7789589857
 C        -6.7193091526        0.6381248697       -1.3615020025
 C        -7.6689766461        1.8435496531       -0.8822651839
 O        -8.5231986457        1.6982255344        0.0312230190
 C        -7.4306262880        3.1456000222       -1.6782349302
 C        -8.5587777204        4.1290725459       -1.6441239869
 C        -9.4093806837        3.7711324673       -2.8404532250
 O        -9.0851783067        2.9381696799       -3.6638387494
 C       -10.8210494829        4.6233207783       -3.0826209629
 C       -11.7285057965        4.0485488466       -2.0183000384
 O       -11.6427935528        4.6287536148       -0.9150383804
 C       -12.4984002830        2.7277317463       -2.2383355614
 C       -11.8488129710        1.7147854663       -1.2743955301
 C       -12.3190463598        2.0050353482        0.1470379297
 O       -13.3363325234        2.6038591588        0.3776052054
 C       -11.5284977207        1.3161605686        1.3589347368
 C       -10.6710206825        2.3738771721        2.0919900299
 O       -11.0011753490        3.5284433876        2.1019602031
 C        -9.5932585465        2.0021223983        3.0794683310
 C        -9.1940239239        3.2833903338        3.8187107693
 C       -10.3097797847        3.8752375569        4.6070904428
 O       -11.0025781941        3.2265015757        5.3526088730
 C       -10.4773078802        5.4619030891        4.6640962700
 C       -11.9509062660        5.9659093780        4.2411052192
 O       -12.1781624047        6.2846984697        3.0760978332
 C       -13.1040207990        6.1095039087        5.3087659295
 C       -14.5744550435        5.9438901368        4.7543803402
 C       -15.1042766850        7.2158628928        3.9811646157
 O       -14.7316410943        8.3458422760        4.2194605518
 C       -16.2991664789        7.0429004513        2.8617602883
 C       -15.5208848436        6.4128387499        1.6831367388
 O       -15.0350304281        5.2611058578        1.6901530337
 C       -15.0939102900        7.3945472169        0.5353208103
 C       -17.2685796786        6.0193498283        3.3796952973
 C       -16.8610161619        8.4382659505        2.6268198698
 C       -10.0675218634        5.8157736366        6.1038469373
 C        -9.3993285892        6.1993942425        3.7907076700
 C       -12.6324199772        1.1643254614        2.4207200946
 C       -10.9127078833       -0.0715531166        1.0148118711
 C       -10.5924916056        6.1306307706       -2.8993040669
 C       -11.2019040399        4.4096745315       -4.5854221158
 C        -7.4297866269        0.1108626179       -2.7729939129
 C        -6.7655716481       -0.5615743559       -0.4025942906
 C        -2.0309481711        3.0433398653       -5.4991948994
 C        -3.8341489811        4.7683136757       -5.2347050663
 H        -5.5103638541        2.8299360009       -8.3484252274
 H        -4.2885996804        3.9793498495       -8.3818856655
 H        -5.5616659607        4.1104703821       -7.1424664815
 H        -2.8747060105        2.0149837597       -2.4855948047
 H        -2.5958073978        0.9304982442       -3.8307681372
 H        -3.9201948010       -0.3652121042       -2.2196745720
 H        -4.9988319626        0.1308903870       -3.5582455972
 H        -7.2506344971        2.8142158534       -2.6961666594
 H        -6.4545220621        3.4907265744       -1.3524465846
 H        -8.1864103155        5.1765215787       -1.7421112850
 H        -9.1004350686        4.0860582308       -0.7018315109
 H       -12.3018400442        2.3828491423       -3.2652853574
 H       -13.6211524765        2.7453227582       -2.0786617246
 H       -10.7670618069        1.7564431523       -1.3483533329
 H       -12.2487888261        0.7737871057       -1.5995119452
 H        -8.8015021982        1.4744376053        2.5928546436
 H       -10.0261035971        1.2505691940        3.7689791513
 H        -8.8498417012        4.0576900954        3.1089003232
 H        -8.3922787784        2.9956943964        4.5061992762
 H       -12.9215962959        7.0551388361        5.7810523052
 H       -13.0054849386        5.4129506963        6.1053344023
 H       -15.2050929473        5.8300025613        5.6394204713
 H       -14.6961359540        4.9831637889        4.2155872215
 H       -15.8968183005        7.6394532101       -0.1514301116
 H       -14.3477550261        7.0180773966       -0.1494498917
 H       -14.7153533902        8.4064294740        0.7926890398
 H       -17.6202298420        6.3041311667        4.3816654691
 H       -16.8623220536        5.0103586083        3.5593228226
 H       -18.2315339058        6.0029222398        2.7814695582
 H       -17.7146087963        8.4847212165        1.9704715512
 H       -16.1288747113        9.0473179596        2.0808896935
 H       -17.0285850291        9.0551574212        3.5161683972
 H       -10.1082553221        6.8542944143        6.3080304173
 H        -9.0725030188        5.5378903369        6.3235116175
 H       -10.8104802585        5.2887781321        6.8157914802
 H        -9.7561520230        6.2062060024        2.7593288756
 H        -8.3765149981        5.8753374153        3.9291900863
 H        -9.3991902816        7.3018207043        4.1130454068
 H       -13.4101513624        0.4760591679        2.0344623632
 H       -13.1243080302        2.0698612069        2.6087084218
 H       -12.1936546631        0.7872296525        3.2986956348
 H       -10.0435063147        0.0764948088        0.3195972833
 H       -11.5801285612       -0.8112985557        0.6870499865
 H       -10.4492725601       -0.5805638860        1.8533404050
 H       -11.2499612988        6.7379442581       -3.4739828347
 H        -9.5344576929        6.3823038636       -3.1772264143
 H       -10.6437680891        6.4253419140       -1.8520524872
 H       -12.2454854454        4.5139768680       -4.8387105409
 H       -10.9036682301        3.4073908561       -4.9577102190
 H       -10.6811335984        5.0649749575       -5.2741845884
 H        -6.8934727410       -0.7834059407       -3.1960029540
 H        -7.5511370777        0.8648820605       -3.5416089955
 H        -8.4504266239       -0.2746855769       -2.4388154093
 H        -7.7653038289       -0.5733149165        0.1132560669
 H        -5.9878741968       -0.6423990330        0.3315799847
 H        -6.6481578111       -1.4614524619       -1.0207238891
 H        -1.8083681531        3.5730659537       -6.4022719667
 H        -1.7903790068        1.9992711201       -5.5201243078
 H        -1.4393229141        3.4932762487       -4.7223299647
 H        -3.4208344332        5.3412561225       -4.3606558429
 H        -4.8775146541        4.9205744235       -5.2542673546
 H        -3.4547168985        5.2194291087       -6.1531742030
 Na      -12.9034992817        4.9155915540        1.1779564693
