117

 C        -4.9346735979        3.5608867774       -7.6496702435
 C        -4.2431878104        2.5971833986       -6.7795609117
 O        -4.3722613614        1.4117504827       -6.8566390651
 C        -3.5160635132        3.0768869885       -5.5064890105
 C        -4.2211763310        2.3236220865       -4.2309066546
 O        -5.3557132904        2.6214003674       -3.8249989001
 C        -3.4871129778        1.1278501131       -3.5752472943
 C        -4.4590163574        0.1907311844       -2.8538323148
 C        -5.1770851654        0.9132698121       -1.6653237244
 O        -4.5767233100        1.6176406812       -0.8646632399
 C        -6.6725988590        0.6316518107       -1.4263893223
 C        -7.3148649025        1.8035177071       -0.7045617836
 O        -7.9472461377        1.7183284053        0.3159818748
 C        -7.1754753015        3.1710466841       -1.4823880460
 C        -8.5054185703        3.9384985650       -1.5421994443
 C        -9.3883645820        3.5721460712       -2.7128598380
 O        -9.2883822108        2.5809553818       -3.3573877126
 C       -10.6160030176        4.5016182432       -3.0163586470
 C       -11.7409157963        3.9737205115       -1.9935763684
 O       -11.9561705163        4.5950572048       -0.9964590323
 C       -12.4279494545        2.5902203032       -2.2038609554
 C       -12.1114560840        1.5997409983       -1.0023026918
 C       -12.5527416767        1.9289904455        0.4047270889
 O       -13.5517248957        2.6117894128        0.6039507266
 C       -11.7122556957        1.3590572356        1.6070236983
 C       -11.0458076567        2.5227477143        2.4417210149
 O       -11.1374999778        3.6891185232        2.0391133209
 C       -10.0550449461        2.1734996990        3.5526802681
 C        -9.4756773121        3.4199129784        4.2481089339
 C       -10.6903783274        4.2714732288        4.7336302357
 O       -11.6803491537        3.7778355269        5.2281451731
 C       -10.5293273549        5.8726838587        4.5318214597
 C       -12.0188608096        6.1560713174        4.0526595424
 O       -12.2680943563        6.3291182535        2.8639859915
 C       -12.9985566065        6.3636509568        5.1696747219
 C       -14.5069318849        6.1811668889        4.7837571910
 C       -14.9823432489        7.3467374762        3.9414303959
 O       -14.4140443400        8.4313689210        4.0785629692
 C       -16.0132056637        7.0553135923        2.7700683051
 C       -15.2054316063        6.3654770666        1.6293768243
 O       -15.1045827019        5.1635622405        1.7496006926
 C       -14.5686414877        7.1726641988        0.5822105190
 C       -17.1638418291        6.1215474994        3.2375252971
 C       -16.5170316696        8.5378573370        2.3746189254
 C       -10.2655004041        6.5845694156        5.8877193948
 C        -9.4554740453        6.2680398098        3.5170890621
 C       -12.7804072480        0.7457817414        2.6291184598
 C       -10.6885892260        0.3539414583        1.1286778471
 C       -10.2200351659        6.0230912160       -2.8230576129
 C       -11.0369905412        4.2215096008       -4.4613465621
 C        -7.3134420171        0.4726036774       -2.8191540088
 C        -6.8189782420       -0.7678297395       -0.6887058192
 C        -1.9996352184        2.6421074240       -5.6013789624
 C        -3.6405576934        4.5900381745       -5.1915308250
 H        -5.4978072760        3.0937824436       -8.4994857000
 H        -4.3239381527        4.3519037090       -8.0569068697
 H        -5.7407077839        4.0940397783       -7.1530481146
 H        -2.7568511272        1.4459071318       -2.8236328184
 H        -2.9780293842        0.4780903196       -4.2592516725
 H        -4.0293101577       -0.7188782205       -2.4315500774
 H        -5.2588154974       -0.0654287518       -3.5588449569
 H        -6.7493849123        2.9833007252       -2.4454437105
 H        -6.3935806359        3.7568799602       -0.9895885143
 H        -8.2354158263        5.0476592732       -1.5817771071
 H        -9.0514764676        3.8249990190       -0.6425248255
 H       -12.0091290545        2.1843363148       -3.1612471122
 H       -13.5149736655        2.7412918994       -2.2912725955
 H       -11.0317952781        1.3993049103       -1.0486053354
 H       -12.6189006179        0.6516134232       -1.1662929655
 H        -9.3384138538        1.5433176449        3.0493435936
 H       -10.5777794139        1.5339635641        4.2775626819
 H        -8.8091859137        3.9942728792        3.6248533379
 H        -8.8747766638        3.0686414260        5.1490852961
 H       -12.8153967242        7.3984944573        5.4040977918
 H       -12.7250367882        5.7857088716        6.0053229818
 H       -15.1513161981        6.0929780481        5.6594612890
 H       -14.6416449849        5.2557771724        4.1768824085
 H       -15.1816929273        8.0210461205        0.2794508727
 H       -14.3476916681        6.7117989490       -0.3961887646
 H       -13.6452705365        7.6789798426        0.9054484662
 H       -17.5287625677        6.6216628522        4.2146120625
 H       -16.8266231229        5.0954721391        3.4937371300
 H       -18.0236225069        5.9756526997        2.5733873516
 H       -17.3738279624        8.4792835709        1.6540591195
 H       -15.8287933237        9.2595605871        1.9500391678
 H       -16.9729250778        8.8948373311        3.2643196242
 H       -10.3722570053        7.6736842284        5.6829121702
 H        -9.2198511805        6.4112588372        6.2175785464
 H       -10.8924064822        6.3395733248        6.6676958972
 H        -9.5029863261        5.7680207056        2.5089539610
 H        -8.4609660387        5.9665677655        3.9193303435
 H        -9.5417488344        7.3217255854        3.4963196754
 H       -13.3214274848       -0.0103593860        2.1773565632
 H       -13.4204203483        1.5921410929        2.8961288518
 H       -12.3159892206        0.3041950505        3.5249647289
 H        -9.9178000840        0.8617584849        0.6150506927
 H       -11.1740308972       -0.4191112590        0.4235518480
 H       -10.1758265274       -0.1429041126        1.9632051668
 H       -10.9781361502        6.7059037829       -3.2187519997
 H        -9.3515812871        6.1570620175       -3.3910788899
 H       -10.1158911456        6.3440927270       -1.8088667966
 H       -11.9978153426        4.6843687133       -4.5891380463
 H       -11.0040296391        3.1895798904       -4.7421314546
 H       -10.3837263384        4.7095372699       -5.2192457217
 H        -7.0378389021       -0.5445116813       -3.2399949481
 H        -7.0068757380        1.1845578656       -3.6489737683
 H        -8.3633368700        0.3688911318       -2.6593154231
 H        -7.8182403357       -1.1784790367       -0.6954113650
 H        -6.5362596992       -0.5937748265        0.3833740015
 H        -6.1607833186       -1.5051268252       -1.1748448324
 H        -1.4749079051        3.2704158934       -6.3030000024
 H        -1.9735538651        1.6138610742       -5.9256400638
 H        -1.4865336164        2.7880087249       -4.6181575156
 H        -3.1090343795        4.7401248122       -4.3041749542
 H        -4.7054300736        4.9388225917       -5.1952720088
 H        -3.1959076683        5.2402487857       -5.9465451079
 Na      -13.0997249502        4.8229103987        1.0956085828
