117

 C        -4.9217998143        3.6156376684       -7.5821375460
 C        -4.2651322090        2.5289347798       -6.7437184233
 O        -4.2584432705        1.4036838875       -7.2010157642
 C        -3.4699599509        2.9348265925       -5.5570272082
 C        -4.1697407498        2.1483389418       -4.2833028774
 O        -5.2560570626        2.5307113548       -3.9718636803
 C        -3.4209634183        0.9533530917       -3.6970907330
 C        -4.2665599823       -0.0062099271       -2.8647002538
 C        -5.0575177499        0.8227522545       -1.7984154589
 O        -4.4286639358        1.5285399306       -1.0546787056
 C        -6.6183786709        0.4982660461       -1.4679973719
 C        -7.2814658221        1.7808731498       -0.8362077241
 O        -7.9395943167        1.6660119159        0.2148623218
 C        -7.0366884706        3.2176182898       -1.3974579001
 C        -8.3931629250        4.0320679518       -1.4314718297
 C        -9.3670489698        3.5382933560       -2.5097277000
 O        -9.1156476177        2.4934592291       -3.0943224386
 C       -10.6373079147        4.4642626928       -2.8929738198
 C       -11.8144194629        4.1448617698       -1.9136179868
 O       -12.1417992065        5.0972584072       -1.1614556866
 C       -12.5429228847        2.7511523962       -1.8963191953
 C       -11.8872621565        1.7720931745       -0.8804647699
 C       -12.4919679340        1.8034052419        0.5232600974
 O       -13.5674851536        2.3590934920        0.6012770492
 C       -11.7741089128        1.2247952246        1.7514466008
 C       -11.1330428915        2.4412952679        2.4737758401
 O       -11.2402935677        3.6307620266        2.2189165872
 C       -10.3103568632        2.1045868308        3.7559102754
 C        -9.5994746219        3.3334812573        4.2647066145
 C       -10.6677070511        4.4204597828        4.6276203778
 O       -11.5819708908        3.9811622940        5.3281462846
 C       -10.5589246822        6.0568282817        4.4226564639
 C       -12.0677236877        6.4157446258        4.1282660607
 O       -12.5606025544        6.5072505612        2.9999084526
 C       -13.0571163995        6.5182334000        5.2836913645
 C       -14.4786577795        6.2942903834        4.9097621768
 C       -15.0152911557        7.4853664700        3.9269036888
 O       -14.4020706977        8.4787537398        3.8372437196
 C       -16.1119153182        7.1666113725        2.6768256213
 C       -15.2347891560        6.4839578801        1.5717249993
 O       -15.2243322247        5.2545395724        1.5003360795
 C       -14.4398329036        7.2978145890        0.5808168165
 C       -17.3153616932        6.3461105838        3.1664426321
 C       -16.5370023909        8.6307894236        2.2744333670
 C        -9.9344116632        6.5061986541        5.8296917208
 C        -9.7320159415        6.4341726418        3.1597539256
 C       -12.7802176758        0.6756629529        2.7766170825
 C       -10.7353982436        0.0370292240        1.3676122556
 C       -10.4056222523        5.9799697054       -2.8288302895
 C       -11.1257097801        4.0646077609       -4.3220518739
 C        -7.4817057186        0.2878868087       -2.7533659162
 C        -6.7438480892       -0.7141404876       -0.6215457482
 C        -1.9632501336        2.6367160077       -5.6550068309
 C        -3.5802224761        4.4343017543       -5.1775001018
 H        -5.5108515480        3.3785364980       -8.4480296280
 H        -4.1409888086        4.3418703508       -7.8762501819
 H        -5.6852790528        4.2249796134       -7.0129969837
 H        -2.5626451138        1.2664173267       -3.0950690320
 H        -3.0168882540        0.2916185675       -4.4941392252
 H        -3.6968879872       -0.6630929225       -2.2205279212
 H        -4.9092050756       -0.6201733592       -3.4596968102
 H        -6.5355296530        3.0358258702       -2.3670152774
 H        -6.3011372086        3.7991882948       -0.8203249833
 H        -8.1525188158        5.0474852746       -1.5160616725
 H        -8.9292648580        3.9364141438       -0.4271581257
 H       -12.4511742881        2.3261504460       -2.8548749419
 H       -13.5774118794        2.8804490828       -1.6235001547
 H       -10.8124137194        1.9539857057       -0.7808247909
 H       -11.9324269809        0.7600556844       -1.3707935974
 H        -9.7003774582        1.1846804897        3.6419748829
 H       -11.0911307219        1.8678090831        4.5065441026
 H        -8.7807264071        3.7034068501        3.5979602519
 H        -9.1170836254        3.0619382276        5.1917522421
 H       -12.9290231640        7.4883342266        5.8448269361
 H       -12.7497544029        5.6600799191        5.9602285650
 H       -15.1744293111        6.2083671449        5.7692366413
 H       -14.5072136953        5.3494207863        4.3728257705
 H       -14.9664696841        7.8570668379       -0.1755054266
 H       -13.8031879030        6.6766831658        0.0055947875
 H       -13.7828476806        8.0455412163        1.0057495596
 H       -17.6942767412        6.8026500127        4.0546770984
 H       -17.1074275932        5.2941679999        3.3033170171
 H       -18.1099676596        6.3372587605        2.4267154534
 H       -17.2656407279        8.7410563484        1.4569283482
 H       -15.5942608746        9.2020779294        2.0797405408
 H       -17.0326188141        9.0465442074        3.1686087242
 H       -10.0738541133        7.6064587297        5.9148527706
 H        -8.8555614485        6.2527970620        5.8227161513
 H       -10.4173463678        6.0586516065        6.7154882370
 H       -10.3656765384        6.3430517120        2.3044423777
 H        -8.9228276798        5.7778963584        2.9423052773
 H        -9.4483226627        7.5133281360        3.3068522943
 H       -13.4689562091       -0.0549995194        2.2984061364
 H       -13.2176547229        1.4782056198        3.3064398596
 H       -12.1703598484        0.1045514461        3.4302845051
 H        -9.7294333437        0.4341348566        1.0858632104
 H       -11.0811513375       -0.4755082318        0.5228388802
 H       -10.5821155908       -0.5080412661        2.2762911003
 H       -10.6014472250        6.4516369801       -3.8071897944
 H        -9.3452323167        6.3252684462       -2.5379428028
 H       -11.1978952126        6.4474120456       -2.1961976269
 H       -12.1835857222        4.2357063751       -4.5405108724
 H       -10.8199799783        2.9923102188       -4.5271302675
 H       -10.5766509800        4.6770827800       -5.0392516396
 H        -7.3284723667       -0.6096522465       -3.3022230939
 H        -7.1711909213        1.0222073042       -3.4149209982
 H        -8.5765271545        0.3197918149       -2.5431703110
 H        -7.7808849282       -0.7302923754       -0.2068882192
 H        -6.0988609715       -0.5947395572        0.2093227089
 H        -6.6420678185       -1.6496153968       -1.1715112212
 H        -1.5219804654        3.2295272348       -6.4579602050
 H        -1.8062220751        1.6153945652       -5.9674237450
 H        -1.4955971470        2.8731822888       -4.7431136073
 H        -3.0005065677        4.7320075295       -4.2683723292
 H        -4.5952017241        4.6698070515       -5.1227891326
 H        -3.2032179483        5.0375378372       -5.9955395636
 Na      -12.9601761673        4.5692749395        0.9293819269
