117

 C        -5.1580795823        3.3417135488       -7.3624325498
 C        -3.9597097088        2.4595506105       -6.9424890166
 O        -3.7305375882        1.5180008476       -7.6795067954
 C        -3.2313992935        2.7294060702       -5.5798933614
 C        -4.1362065848        1.8551601050       -4.6024345221
 O        -5.3247418205        2.0521350608       -4.4628034248
 C        -3.4587144459        0.6994927986       -3.8842729110
 C        -4.3789905476       -0.1144977822       -2.9521057870
 C        -5.1305395910        0.8124538427       -1.9620691635
 O        -4.6500469662        1.8455772557       -1.5790025439
 C        -6.5486813078        0.3223423904       -1.4565172895
 C        -7.3884406173        1.5720508399       -1.0082534423
 O        -8.3184978632        1.5273744957       -0.2392808213
 C        -6.9956749978        2.9817718901       -1.6143662013
 C        -8.1070613755        3.9876085377       -1.7340007444
 C        -9.3579208010        3.4561488034       -2.4898272929
 O        -9.7016249425        2.2765507740       -2.7183153648
 C       -10.5195701981        4.5577519306       -2.7531216796
 C       -11.3975506712        4.2158762150       -1.5083812090
 O       -11.4965697485        4.9518083339       -0.5633230681
 C       -12.1233804396        2.8337873665       -1.4535903483
 C       -11.5042185720        2.0059881258       -0.2975953469
 C       -12.4668674438        1.6341489205        0.8566942863
 O       -13.6773473370        1.8442293248        0.8822718820
 C       -11.7402991519        1.0482237280        2.1331270097
 C       -11.1910557566        2.2649697620        2.9945379764
 O       -11.8168575518        3.3019021706        2.9396896690
 C       -10.0027966167        2.0801522811        4.0175177192
 C        -9.5402513724        3.5294817861        4.3653081882
 C       -10.7159848159        4.4248542454        4.7458141558
 O       -11.4497177704        4.1327222186        5.6580507487
 C       -10.8851470239        5.9411346552        4.0403061547
 C       -12.4325355731        6.3482238678        3.7577667538
 O       -12.9739265521        6.0380517977        2.7280662202
 C       -13.1486799177        6.9273674954        4.9112624484
 C       -14.6989835006        7.1130306494        4.8281045833
 C       -14.9956634234        8.0266565021        3.7067566402
 O       -14.5599469922        9.1537278890        3.6128400566
 C       -16.0888536202        7.5833203620        2.5951556259
 C       -15.2567297021        7.0182146569        1.4377515678
 O       -15.1660782903        5.8240796810        1.1982109353
 C       -14.3332209854        7.9396477043        0.6773844335
 C       -17.1869014828        6.6289960124        3.1330898324
 C       -16.7867471499        8.9548067401        2.1432926454
 C       -10.2337964185        6.8729624671        5.0751422946
 C       -10.1961639267        5.9496429008        2.6670202993
 C       -12.8545514835        0.4063512737        3.1134908281
 C       -10.6943091701        0.0302631673        1.7203451441
 C       -10.0668966154        6.0453160436       -2.6881247412
 C       -11.1211736299        4.2575386077       -4.1529177802
 C        -7.2142761320       -0.3778540957       -2.6366293279
 C        -6.4185459103       -0.4804929334       -0.2377200361
 C        -1.8172195361        2.2010540757       -5.5925443869
 C        -3.4062993988        4.1951431525       -5.1277822030
 H        -5.5390605882        2.9543258825       -8.2746581812
 H        -5.0351717909        4.4465357417       -7.3989068172
 H        -6.0070481442        3.2776927865       -6.7487453651
 H        -2.5896409385        0.9930759220       -3.2832679980
 H        -3.0252945220       -0.0008849201       -4.5696321502
 H        -3.8581340147       -0.8958876412       -2.3472062255
 H        -5.1592310029       -0.6696722782       -3.4874318541
 H        -6.6312382861        2.7792195945       -2.6332922684
 H        -6.1177362403        3.3567173546       -1.0680780951
 H        -7.7335935674        4.8693836316       -2.3483596637
 H        -8.3869435876        4.3467601917       -0.7677576144
 H       -12.0778436245        2.3478536498       -2.4560505466
 H       -13.1821879111        2.9917533218       -1.2557308682
 H       -10.6985351928        2.6445806290        0.1135386114
 H       -10.9500295822        1.1108866325       -0.5579554513
 H        -9.1842739618        1.4918980354        3.5628455392
 H       -10.4013981865        1.6006261472        4.8980153434
 H        -8.9250927508        3.9559451778        3.6115064351
 H        -8.9024759867        3.4298493624        5.2101249260
 H       -12.6260543896        7.8665508155        5.2198138228
 H       -13.0516486613        6.1528260389        5.7097455761
 H       -15.0818010098        7.5859560091        5.7558922925
 H       -15.2294011364        6.1600759451        4.7014388788
 H       -14.8948238719        8.6077475695        0.0127577729
 H       -13.6476791396        7.4282137616       -0.0088665279
 H       -13.7418820319        8.6182283003        1.2068507199
 H       -17.5845785349        7.0015956333        4.0038763364
 H       -16.6042976155        5.7345181408        3.3647817056
 H       -17.8876864552        6.4021184484        2.3485691373
 H       -17.6871360971        8.6027677189        1.6965745961
 H       -16.2061415495        9.7091291154        1.6246933649
 H       -17.0614136274        9.4377754072        3.1385857731
 H       -10.5394199473        7.8644839609        4.9366177135
 H        -9.1894185076        6.8868695587        4.8998875352
 H       -10.4497477932        6.4786333282        6.1559459985
 H       -10.5366111204        5.2263840827        1.9610750376
 H        -9.0947862598        6.0017044873        2.8078718396
 H       -10.4153881856        6.8801914553        2.2192526208
 H       -13.2739113350       -0.5329629056        2.6518907525
 H       -13.6615635251        1.1434873689        3.2070360942
 H       -12.3307512965        0.3208394165        4.0525921164
 H        -9.8894019059        0.6885747427        1.3051160520
 H       -11.0169450774       -0.6628417559        0.9591860038
 H       -10.4161504435       -0.5461271889        2.5948195900
 H        -9.0435347623        6.1220730454       -2.2703084380
 H       -10.7909816166        6.6530238578       -2.1351605680
 H       -10.1037805908        6.5186311728       -3.7032369338
 H       -12.1968193639        4.6443476961       -4.2619518481
 H       -11.1996268495        3.1954229305       -4.2959369735
 H       -10.4369108747        4.7315214556       -4.8128025558
 H        -6.7162500711       -1.2469888758       -2.8840951872
 H        -7.4338426717        0.2466038500       -3.4748445036
 H        -8.2328520714       -0.7060062379       -2.3942213501
 H        -7.3864569719       -0.6809148526        0.1791958298
 H        -5.7666275587        0.0480594585        0.4793752319
 H        -5.9065124075       -1.4195783248       -0.5118021894
 H        -1.2993056977        2.7319608019       -6.3761790735
 H        -1.8281557945        1.1594045117       -5.9037857506
 H        -1.2674419004        2.3160115168       -4.6713506456
 H        -2.9301948307        4.3614546609       -4.1958093368
 H        -4.4431540397        4.5116574437       -4.9281436299
 H        -2.8837248358        4.7575099696       -5.8822905835
 Na      -13.1163370869        4.4325005339        0.8519855151
