117

 C        -5.2192098924        2.7376688268       -7.3727086502
 C        -3.7923184349        2.3015969070       -7.1372031391
 O        -3.1254801645        1.9751096431       -8.0985763111
 C        -3.2328231715        2.4289726973       -5.6620526529
 C        -4.0693321144        1.5584817781       -4.7127622339
 O        -5.2426921006        1.8519212061       -4.5663847981
 C        -3.4146075435        0.4044892816       -3.8919902109
 C        -4.5395871281       -0.2732497292       -3.1843325499
 C        -4.9870653430        0.4263297390       -1.8361192876
 O        -4.1887651305        1.0265195427       -1.1329080083
 C        -6.4751069483        0.2256695279       -1.3748386599
 C        -7.2629552590        1.6352551704       -1.1640477428
 O        -8.0695027668        1.7741499449       -0.2276913315
 C        -7.0036347827        2.7554360688       -2.2010743008
 C        -8.0233555798        3.8733103963       -2.0902835478
 C        -9.4436219894        3.5062068003       -2.7201975555
 O        -9.5120737178        2.6526827042       -3.5240642420
 C       -10.7330556412        4.4923179760       -2.4359452768
 C       -11.6208709441        3.8761257979       -1.3177731290
 O       -11.9637951199        4.5566360883       -0.3383396188
 C       -12.1287456403        2.4789991541       -1.5603988863
 C       -11.5733760155        1.5002263683       -0.4144825312
 C       -12.2494628059        1.7618224786        0.8906973917
 O       -13.3307456764        2.3504425812        0.8522596983
 C       -11.7129078271        1.1459162415        2.2519861034
 C       -11.3192600634        2.3365311668        3.2772409579
 O       -11.9310871659        3.3667601600        3.1215322453
 C       -10.2973587112        2.2866744940        4.4184715833
 C        -9.7572497197        3.7687213307        4.6678223650
 C       -10.8533323326        4.8339988548        4.9774303901
 O       -11.7082372270        4.8317149838        5.8472778495
 C       -10.8407626522        6.0824885609        4.0364876132
 C       -12.3248772122        6.4440139569        3.9181405133
 O       -12.9292085790        6.2765782799        2.8584255410
 C       -13.0236563721        7.1790378405        5.0322877163
 C       -14.5407509021        7.1839769137        4.7274215100
 C       -14.9192904614        8.1229373214        3.5474315649
 O       -14.3214596905        9.1597992822        3.4034575101
 C       -16.0663677496        7.7386562018        2.3952314918
 C       -15.2572037523        7.0952122492        1.2379682869
 O       -15.3229169149        5.8649945993        1.0363321275
 C       -14.2678490725        8.0383066123        0.3845717870
 C       -17.1755326221        6.6595912350        2.8630816339
 C       -16.6853738440        9.1096530219        1.9753071728
 C       -10.0518967067        7.3176567437        4.6219153165
 C       -10.2545496007        5.8180394093        2.5947633080
 C       -12.8244972979        0.2698108664        2.9447887210
 C       -10.5361672305        0.1649733718        1.9548524519
 C       -10.2802645451        5.8630123732       -1.9165464734
 C       -11.5302368536        4.4885052490       -3.7648646957
 C        -7.3772222478       -0.5815390177       -2.3155407708
 C        -6.5368926771       -0.4440747413        0.0952014454
 C        -1.6779681006        2.1749341196       -5.7590757778
 C        -3.4235944371        3.8971898232       -5.2528797023
 H        -5.7114025509        2.5050595629       -8.3105897578
 H        -5.0876727170        3.7987090609       -7.4032297136
 H        -5.9623537272        2.6612730311       -6.5615050843
 H        -2.7189081485        0.8325394847       -3.1672858732
 H        -2.7830918798       -0.3011964981       -4.4235351495
 H        -4.3365199927       -1.3106888254       -2.8014351158
 H        -5.4302738774       -0.2811781287       -3.8433036313
 H        -7.0566173318        2.3168789124       -3.2205655190
 H        -6.0210738866        3.1953188138       -2.0606047426
 H        -7.5469759399        4.7402385613       -2.4823792836
 H        -8.2289715059        4.0715617579       -0.9876894229
 H       -11.7798182675        2.1206523149       -2.5070375096
 H       -13.2375582179        2.4558487573       -1.6681830706
 H       -10.5063445314        1.5934408009       -0.3166618018
 H       -11.7793446689        0.4675885750       -0.7798909301
 H        -9.5377091702        1.5872349856        4.0081194546
 H       -10.7258265086        1.9323734144        5.3274189353
 H        -9.2865689101        4.0910453664        3.7516066157
 H        -9.0579943184        3.7460124272        5.4498764361
 H       -12.6668426256        8.2271830775        5.1122763506
 H       -12.9188645001        6.6992732449        6.0544693903
 H       -15.0356391277        7.7869482266        5.5395594988
 H       -15.0253175188        6.2193777589        4.6791168775
 H       -14.6942852193        8.4204866224       -0.5311498085
 H       -13.3444519676        7.6351024137        0.1076261109
 H       -13.9885999837        8.9962878436        0.8557008826
 H       -17.5621005457        7.0852088271        3.7862040461
 H       -16.7977396566        5.7155862061        2.9297485971
 H       -17.9110031136        6.7235795052        2.1078790772
 H       -16.8702804787        9.1131385861        0.8849414218
 H       -15.8460945747        9.8169952057        2.1708157225
 H       -17.5670917365        9.2653145003        2.5560965980
 H       -10.2162057106        8.1990512737        3.9421219841
 H        -8.9726393572        7.0871079629        4.6627642565
 H       -10.3963464177        7.4526425858        5.5761535879
 H       -10.6251101431        4.8441727173        2.2797383486
 H        -9.2104741561        5.8733447529        2.5313006869
 H       -10.7167722633        6.5049285228        1.8412979933
 H       -12.7729406892       -0.6639858246        2.3876898739
 H       -13.8083839057        0.7015888691        2.7821214196
 H       -12.5578745993        0.1092719969        4.0019080592
 H        -9.5915120106        0.6947214176        1.8426309907
 H       -10.8831303532       -0.3509533503        1.0727421986
 H       -10.3453663202       -0.6162676256        2.7036763703
 H       -10.8614622410        6.2548992065       -1.0313755103
 H       -10.4088490017        6.6286589408       -2.7556437087
 H        -9.2264906802        5.7409624716       -1.6222721484
 H       -12.5201811008        4.7864155707       -3.5143176771
 H       -11.4039015506        3.4638289218       -4.2339997060
 H       -11.1055991137        5.2460707152       -4.4587123047
 H        -7.0443580826       -1.5051999980       -2.7496583299
 H        -7.6631431548        0.0112036340       -3.1283228941
 H        -8.3004829868       -0.8866005979       -1.8227281461
 H        -7.5937496260       -0.5712283493        0.4255084434
 H        -6.0232270165        0.1949000933        0.7836614007
 H        -5.9107792500       -1.3383612446        0.0489932336
 H        -1.2260057728        2.9911103137       -6.3146930081
 H        -1.3931502334        1.2156702535       -6.1346458550
 H        -1.2526021075        2.2385827640       -4.8049386930
 H        -2.9731214157        4.0378329700       -4.2283692067
 H        -4.4597392036        4.0510319369       -5.2491589500
 H        -2.9762147994        4.6027589861       -5.9486993620
 Na      -13.6148009727        4.5519855095        1.3803369792
