117

 C        -5.2516146479        2.6362237602       -7.4398329885
 C        -3.7352168706        2.3135661564       -7.1838027828
 O        -2.9635467062        2.0176013625       -8.0791166781
 C        -3.1966419459        2.4258008420       -5.6838802699
 C        -4.0716218898        1.5808907760       -4.7109992417
 O        -5.2962613298        1.8139753722       -4.5830466107
 C        -3.5614192458        0.3707463281       -4.0293606879
 C        -4.5627276787       -0.3414077204       -3.1236972018
 C        -5.0200576000        0.3836727971       -1.7565451412
 O        -4.1228653381        0.8588943290       -1.1218686427
 C        -6.4955025638        0.2536308685       -1.2778082560
 C        -7.2462613327        1.5885614362       -1.1610227227
 O        -7.9999174185        1.7756708122       -0.2195718950
 C        -7.1136685085        2.7027828695       -2.2727889253
 C        -8.0857914873        3.9228284691       -2.1369477491
 C        -9.4489029374        3.6298445778       -2.7530051436
 O        -9.5408502121        2.6733468773       -3.5405397257
 C       -10.6768503733        4.5224370497       -2.4550058891
 C       -11.6605113061        3.7418233205       -1.4280604665
 O       -12.0588377830        4.4059110842       -0.4640631365
 C       -12.0799871555        2.2510325050       -1.6234237089
 C       -11.5136735822        1.4053012010       -0.4216298900
 C       -12.3404059995        1.6808061689        0.8760516793
 O       -13.4035512903        2.2354289168        0.8492088114
 C       -11.6816492482        1.1269845875        2.2238948327
 C       -11.3693941876        2.4297356237        3.3142777814
 O       -12.0353203162        3.4439701213        3.2336831310
 C       -10.3837918097        2.3674878486        4.5169307464
 C        -9.7717099153        3.7653239138        4.8014698178
 C       -10.8593384494        4.8726609481        4.9685694005
 O       -11.5313810148        4.7231794605        5.9416449454
 C       -10.9145476902        6.2159006047        4.0203344470
 C       -12.3945372165        6.6501332847        3.7876418146
 O       -12.9738606854        6.4742606596        2.7426460865
 C       -13.0943430423        7.3043085295        4.9476218511
 C       -14.6203887785        7.2660650649        4.7527903944
 C       -14.8002009195        8.0934170391        3.4899134692
 O       -14.1874978594        9.1696884171        3.3580439730
 C       -15.9504430020        7.7574607665        2.3837800551
 C       -15.2576706409        7.0826381410        1.2347462629
 O       -15.2846949393        5.8758085789        1.0155126957
 C       -14.3767368311        7.9794732270        0.4373039020
 C       -17.0290920545        6.8151322996        2.8822750961
 C       -16.7058206730        9.0833086803        1.9520103004
 C       -10.0992533003        7.3493671923        4.6935457106
 C       -10.2660644188        5.9368559450        2.5805885630
 C       -12.8397713429        0.2824864246        2.9728304960
 C       -10.4471605234        0.2719643015        2.0021159612
 C       -10.3027149203        5.8876229441       -1.7557833023
 C       -11.6293204775        4.7120953350       -3.6843865810
 C        -7.2580823001       -0.6397929477       -2.2544432426
 C        -6.5925774306       -0.4112966339        0.0667308592
 C        -1.6934041750        2.0698868787       -5.7333173243
 C        -3.3882187482        3.8963201168       -5.2423448583
 H        -5.6772606321        2.0559241647       -8.2778261259
 H        -5.4375196030        3.6165806410       -7.7467591340
 H        -5.8817541014        2.4949635633       -6.5853598700
 H        -2.6730140173        0.5758796042       -3.4686530566
 H        -3.1769883892       -0.3409585558       -4.7925575233
 H        -4.1516348742       -1.3002776071       -2.7517537599
 H        -5.4844232589       -0.4983876915       -3.7087085413
 H        -7.1921890504        2.3353971311       -3.2833465782
 H        -6.1137650706        3.1190752824       -2.1370945753
 H        -7.5989108551        4.7382000583       -2.6295576743
 H        -8.2303126851        4.2333884902       -1.0643419452
 H       -11.7363795922        1.8396937706       -2.5870131566
 H       -13.2097730477        2.1642881715       -1.6796224798
 H       -10.4372427137        1.5354992905       -0.3160432905
 H       -11.6946010079        0.3600563673       -0.6999520570
 H        -9.6965508910        1.5798039946        4.3905686906
 H       -10.9885934371        2.1912088814        5.4163790446
 H        -9.0059858771        4.0043034138        4.0870936599
 H        -9.3512613633        3.6465689207        5.8249331068
 H       -12.6759697072        8.2822674756        5.1387256746
 H       -12.9632243422        6.7234493942        5.8374481581
 H       -15.1944046011        7.6673447193        5.5767932803
 H       -14.9481628048        6.2232955880        4.5362118173
 H       -14.8302124194        8.3477752542       -0.4510742471
 H       -13.3943271421        7.6006491959        0.1322260867
 H       -14.1522735445        8.9318785168        0.9380806550
 H       -17.4654568671        7.3986771613        3.7137303699
 H       -16.6096748403        5.8440825477        3.1549335677
 H       -17.7350326213        6.7365168771        2.0918549588
 H       -17.1565647631        8.9497761123        0.9511652667
 H       -15.8601636802        9.7340951816        1.7984621473
 H       -17.3971198745        9.3273142751        2.6993704802
 H       -10.3935142826        8.2393253100        4.2316851416
 H        -9.0782388692        7.1870476647        4.6101208326
 H       -10.3957883478        7.3426069826        5.8100506241
 H       -10.5434248696        4.9094576726        2.2567501184
 H        -9.2088028910        5.9931616707        2.5882003225
 H       -10.6555632036        6.5888269752        1.8391347967
 H       -12.8801119467       -0.7124436622        2.5604659809
 H       -13.7850410029        0.8611802940        2.7317933013
 H       -12.6215044277        0.2523154168        4.0968606285
 H        -9.6186176538        0.8243263132        1.6574410982
 H       -10.8115523609       -0.5374788556        1.2875995011
 H       -10.0726916972       -0.2078335990        2.9207267500
 H       -11.1526070700        6.3993772976       -1.2569800269
 H        -9.9715844101        6.5460095024       -2.5220553954
 H        -9.5052836066        5.6713941590       -1.0479018218
 H       -12.5691082738        5.0095341613       -3.2765210584
 H       -11.5665384773        3.7840681336       -4.2570423528
 H       -11.2985761664        5.5529533505       -4.3635996192
 H        -6.6531177633       -1.5463560491       -2.4394260383
 H        -7.3603630214       -0.2174451401       -3.2669358822
 H        -8.1368011000       -1.0374208098       -1.9291520459
 H        -7.6366503887       -0.4069487229        0.3662938082
 H        -6.0083230398        0.1472111721        0.8123108499
 H        -6.1512425582       -1.3740588545       -0.0458507804
 H        -1.2586002688        2.7304435668       -6.4563756641
 H        -1.4813502694        1.0580966157       -6.0103924366
 H        -1.1540249570        2.2755732245       -4.7894190214
 H        -2.8361357028        3.9995670397       -4.3154485716
 H        -4.4743548594        4.0653234984       -5.1657089577
 H        -3.0237735117        4.6425531396       -5.9525684643
 Na      -13.4926784580        4.4510840311        1.3513903212
