117

 C        -5.0142433415        2.2483200612       -7.5794178668
 C        -3.5546842255        2.1606990165       -7.2144173242
 O        -2.6717869048        2.0294052465       -7.9920242675
 C        -3.1895159731        2.3166351855       -5.6290768051
 C        -4.1292558912        1.4555023893       -4.7655552857
 O        -5.3099091806        1.8178019447       -4.6182491998
 C        -3.6726221711        0.3069301232       -3.9184100814
 C        -4.8400176067       -0.4709294473       -3.2437587914
 C        -5.1720202518        0.2053659153       -1.9392702944
 O        -4.3785515159        0.9460024176       -1.4472327979
 C        -6.6429002890        0.1525249500       -1.3005544716
 C        -7.3316530696        1.5244677906       -1.1629938000
 O        -7.9860911715        1.8868977815       -0.2091106325
 C        -7.3086424426        2.4167777634       -2.4900836657
 C        -8.0914644142        3.6716709869       -2.3287033760
 C        -9.4740261662        3.5308938352       -2.8406300908
 O        -9.7276575532        2.7262827960       -3.7626324080
 C       -10.6241002719        4.4244179514       -2.2842653294
 C       -11.6808515777        3.6217315249       -1.4068085369
 O       -12.3095835945        4.2978307424       -0.6369099549
 C       -11.9179579341        2.0731133596       -1.4828460806
 C       -11.1944674160        1.4787902760       -0.2205878716
 C       -12.1863457760        1.5921679876        0.9604262862
 O       -13.3118285802        1.9068849740        0.7486134757
 C       -11.6996651169        1.1525887690        2.4550460085
 C       -11.7075364026        2.4626909794        3.3567602951
 O       -12.3170680717        3.4765215441        3.0059866130
 C       -10.8589773155        2.5257097265        4.6197306560
 C        -9.9278253044        3.8142745516        4.5943305212
 C       -10.7662592962        5.0511197642        4.9629284158
 O       -11.5425241581        5.0045268541        5.9058385961
 C       -10.6878273702        6.4602848141        4.1185054223
 C       -12.3307297687        6.7548642849        3.8319306886
 O       -12.7990111529        6.4596031317        2.7707498572
 C       -13.1590238542        7.3258805173        4.9548644198
 C       -14.6575939272        7.6389161436        4.5798773954
 C       -14.8741611554        8.4494931785        3.2932690951
 O       -14.1049008385        9.2988641824        2.9146529460
 C       -16.0128438053        7.8747571173        2.3734342943
 C       -15.1708369710        7.0212119581        1.2827759636
 O       -15.2355742266        5.8352954802        1.4297322041
 C       -14.3984314980        7.6397408805        0.1658011660
 C       -17.1363446199        6.9408843404        2.9578198076
 C       -16.6379158504        9.1358556853        1.7208081936
 C        -9.9338437314        7.5579417818        5.0273196114
 C        -9.9891796220        6.3942131181        2.7954277881
 C       -12.6462699880        0.1444705556        3.1920778129
 C       -10.2440372778        0.6048215750        2.3495065171
 C       -10.1409425360        5.7051450126       -1.5322800248
 C       -11.4252544998        4.8690648740       -3.5286301370
 C        -7.6076767257       -0.7857745297       -2.0964310274
 C        -6.4059208774       -0.3998491238        0.1654436275
 C        -1.7702859818        1.8503530594       -5.4605881562
 C        -3.4675378115        3.8610871486       -5.3595327131
 H        -5.2769582322        1.3811777965       -8.2243092388
 H        -5.2450461784        3.0398925442       -8.2972793765
 H        -5.6404895505        2.3559541135       -6.7064574116
 H        -3.0648600963        0.8523750970       -3.2231768020
 H        -3.0390522458       -0.4685552901       -4.3482690218
 H        -4.5371114344       -1.5471887531       -3.2204686084
 H        -5.7633447463       -0.2866081175       -3.8454401762
 H        -7.6992180123        1.8600052167       -3.3408636221
 H        -6.2649139690        2.7023715059       -2.6844616790
 H        -7.6814848727        4.5316802677       -2.8348033506
 H        -8.0545592710        3.8779811217       -1.2179170340
 H       -11.4432879426        1.7634350545       -2.4293340682
 H       -12.9711507514        1.7760392975       -1.5590366160
 H       -10.1978197080        1.9114776734       -0.0968274504
 H       -11.1476747629        0.3982913819       -0.3539094215
 H       -10.3268102275        1.6450942125        4.7945889298
 H       -11.5662208872        2.6022546766        5.4693405135
 H        -9.3514555460        3.8799326196        3.7146651487
 H        -9.2290027780        3.6747570356        5.4201292664
 H       -12.7259904381        8.2488864684        5.4131052221
 H       -13.0573888350        6.5271232941        5.7477914135
 H       -15.1137671778        8.1429383660        5.4255807625
 H       -15.2876376401        6.7242833569        4.3866970416
 H       -14.9894753809        8.4187529976       -0.3033388706
 H       -14.0086645106        7.0848204076       -0.7223041326
 H       -13.5711071117        8.1801185231        0.5849716044
 H       -17.3469402896        7.3201112239        3.9038385195
 H       -16.7337435730        5.9386139796        2.9035403953
 H       -17.9858989581        7.0184791890        2.3659099319
 H       -17.2271931462        8.8330500578        0.8359056526
 H       -15.7507077161        9.6389201490        1.3725491339
 H       -17.2881262700        9.6393153876        2.4580952540
 H        -9.9070921794        8.4745046190        4.4984878852
 H        -8.9632147302        7.1264884450        5.1266079589
 H       -10.4350149180        7.7547064799        6.0475996933
 H       -10.2786389213        5.4862081538        2.2187715691
 H        -8.9106713074        6.2429488680        2.9620562547
 H       -10.1206757095        7.2986255907        2.2613717540
 H       -12.7677139971       -0.8098476192        2.7229046436
 H       -13.5484341006        0.7183874691        3.3584543563
 H       -12.1914290424       -0.0593129769        4.1507962098
 H        -9.4570828670        1.3086049423        2.4161519685
 H       -10.1061188370        0.0970099811        1.3568911433
 H       -10.0646060989       -0.1399220961        3.1188440892
 H       -10.6279797929        6.6154619834       -2.0072928400
 H        -9.0450571805        5.8037312601       -1.5190513473
 H       -10.4373647666        5.6906400757       -0.4109966544
 H       -12.1687993061        5.5424609945       -3.0554534265
 H       -11.8065902081        3.9817318858       -3.9774452607
 H       -10.8787783435        5.3895410490       -4.3359784963
 H        -7.2022182070       -1.7448476235       -2.3934379821
 H        -7.9876979815       -0.4059785988       -3.0515179078
 H        -8.4213195976       -0.9509254132       -1.4901300878
 H        -7.4009831412       -0.3863046885        0.6289952199
 H        -5.7636668580        0.3267923533        0.7281163846
 H        -6.1011604209       -1.4399962894        0.1309635303
 H        -1.1473818775        2.5093420949       -5.9899672702
 H        -1.5635816393        0.9395908184       -5.9449867098
 H        -1.4256536450        1.8248168824       -4.4205848194
 H        -3.2038490217        3.9885608355       -4.3526293034
 H        -4.4659099073        4.2501700798       -5.6525742354
 H        -2.7576719951        4.4269091772       -5.9403187654
 Na      -13.4153599556        4.5751650111        1.2729296429
