117

 C        -4.9830167712        2.1667014818       -7.6415753677
 C        -3.5238924442        2.0965850584       -7.1770503275
 O        -2.6345027234        1.9460538145       -7.9775313795
 C        -3.1177861066        2.3268228649       -5.6251180678
 C        -4.1282066830        1.5169664237       -4.7478640863
 O        -5.3130809836        1.7885016637       -4.7278694683
 C        -3.6952191462        0.1390346024       -4.0076617370
 C        -4.9785537259       -0.3979921673       -3.3977679947
 C        -5.3369245677        0.3742236773       -2.0080119526
 O        -4.5051842464        1.0742929736       -1.4585953676
 C        -6.7496342665        0.0608102732       -1.2265025840
 C        -7.4357535892        1.4295669105       -1.2015473119
 O        -7.9530517169        1.9299956813       -0.2195642648
 C        -7.2153116704        2.3120014069       -2.4180834169
 C        -7.9953967555        3.6105392638       -2.3308335190
 C        -9.4378835172        3.4782592511       -2.8682081985
 O        -9.6775875751        2.6923735072       -3.7268487073
 C       -10.6502513740        4.4328531095       -2.2969238273
 C       -11.6233809711        3.6920385920       -1.4323898203
 O       -12.3397121835        4.3552160178       -0.7087775516
 C       -11.8551279802        2.1611055356       -1.4266697180
 C       -11.1964353179        1.5052034359       -0.1854821337
 C       -12.1594761185        1.5524064354        1.0346503652
 O       -13.3287209376        1.9844171009        0.9546525407
 C       -11.6610139098        1.1740459328        2.4519339501
 C       -11.6747763993        2.4731988422        3.3140088394
 O       -12.3287728627        3.4458549249        2.9881709258
 C       -10.8540169389        2.5644059555        4.6424128900
 C        -9.9808027819        3.8151850273        4.6485915256
 C       -10.7490208496        5.1225382529        4.9246883899
 O       -11.5550371218        5.0931620986        5.8586417017
 C       -10.6684472619        6.4599486507        4.1261767380
 C       -12.2027872457        6.7949751590        3.9507087058
 O       -12.6282250856        6.4931397648        2.8397214522
 C       -13.1187595292        7.5450612220        5.0339038400
 C       -14.6182801431        7.5933921768        4.6063711107
 C       -14.8390040140        8.3477691549        3.2096196704
 O       -14.1651291173        9.2753045648        2.8982366785
 C       -16.0468118102        7.9650796902        2.2770147751
 C       -15.3209295312        7.0290564854        1.2996994759
 O       -15.3854292176        5.8246831075        1.4438320971
 C       -14.4619326900        7.5178052097        0.1660730833
 C       -17.1461232035        7.1279008332        3.0258358307
 C       -16.5885087302        9.2071396060        1.5336092847
 C       -10.0468391074        7.5911362005        5.0661790652
 C        -9.9083458454        6.4732535586        2.8387665753
 C       -12.6340391280        0.0892766175        3.0022567150
 C       -10.1899398271        0.5871228012        2.5233301910
 C       -10.0750299289        5.6532457736       -1.5800539296
 C       -11.5638010074        4.8994026573       -3.5090627104
 C        -7.5190992861       -0.9402331946       -2.0347622612
 C        -6.5088381229       -0.4828159060        0.2316434215
 C        -1.6453943260        1.9044444903       -5.3980732399
 C        -3.4794387226        3.7633079732       -5.3385015333
 H        -5.2110401752        1.2861293645       -8.1541149297
 H        -5.2409241457        2.9051721900       -8.4337008820
 H        -5.5795020854        2.3029791959       -6.7815537174
 H        -2.8472985890        0.3677741775       -3.3572506579
 H        -3.3762843068       -0.6782374458       -4.6413958410
 H        -4.7198145307       -1.4263865863       -3.0823836193
 H        -5.7501562750       -0.4006130869       -4.1878833317
 H        -7.6421760092        1.7700139147       -3.2493020234
 H        -6.1610838248        2.4992720213       -2.6102242012
 H        -7.5458990484        4.3749051417       -3.0558753845
 H        -7.8984623787        4.0121965791       -1.3589069947
 H       -11.4704547470        1.7426978350       -2.4240663204
 H       -12.9414721750        1.9619737492       -1.4292024662
 H       -10.3674269329        2.1754128678        0.1392515380
 H       -10.8451635313        0.5221985647       -0.4063775623
 H       -10.2547620843        1.6843617049        4.8955505085
 H       -11.5560786289        2.6054964298        5.4372894384
 H        -9.4453679438        3.8870213426        3.6864620559
 H        -9.1930148413        3.6360508378        5.4003823473
 H       -12.8213180672        8.5969404664        5.0168033166
 H       -12.8640003428        7.1794756188        6.0071571092
 H       -15.2153596633        8.1511385864        5.3350851008
 H       -15.1094172898        6.6178630025        4.5065261106
 H       -14.8567303123        8.2194960694       -0.5997240909
 H       -14.0661520568        6.7521370711       -0.5306123562
 H       -13.6271571680        8.0222690694        0.6176679268
 H       -17.4664954455        7.6985994848        3.8343114168
 H       -16.6311797541        6.2036211206        3.2546886047
 H       -17.9881857363        6.8995560080        2.3502218097
 H       -16.9515584067        8.8542375416        0.6104944503
 H       -15.8033231124        9.9461100037        1.4080835207
 H       -17.4857449699        9.4604967795        2.1923830243
 H       -10.1654650311        8.5212441287        4.5077697320
 H        -8.9816154453        7.3339626680        5.1360186473
 H       -10.4885766094        7.7043740340        5.9420386926
 H        -9.9805336761        5.6027985616        2.2722039829
 H        -8.8178003187        6.5176225132        3.1167073607
 H       -10.1402826894        7.3473541088        2.2885947121
 H       -12.2725690492       -0.8900355502        2.5027442999
 H       -13.6649329742        0.3813114835        2.7631733347
 H       -12.4979153744       -0.0816081912        4.0691058790
 H        -9.3671832801        1.3193257205        2.1905935312
 H       -10.0796034258       -0.1794213720        1.7815685948
 H        -9.9535261276        0.1324953348        3.4874522547
 H       -10.6505712896        6.5256578751       -1.8725858622
 H        -8.9742539462        5.7888121261       -1.7669326700
 H       -10.1623534671        5.5618728025       -0.4681626621
 H       -12.3949103111        5.4865906396       -2.9748613944
 H       -11.8835754524        4.0107085151       -4.0681563972
 H       -11.0335552363        5.5422824949       -4.1769897380
 H        -6.9431607892       -1.7590390326       -2.2976134447
 H        -7.8465095478       -0.5341060755       -2.9684720570
 H        -8.4595711138       -1.2830709114       -1.5283395446
 H        -7.4812575655       -0.5072751915        0.6998585661
 H        -5.9041185810        0.2665643428        0.7392529918
 H        -6.1717840055       -1.5340546654        0.2380342290
 H        -0.9518836017        2.4508160648       -5.9922179912
 H        -1.4411297911        0.9020325588       -5.6966047476
 H        -1.3949145820        2.0263486451       -4.3756085485
 H        -3.2655413857        3.8575891257       -4.2958997884
 H        -4.5598297883        3.9818786965       -5.5499841442
 H        -2.8961715370        4.4771990509       -5.9286088647
 Na      -13.4259459696        4.4694064160        1.2099315813
