117

 C        -4.9133582726        2.0851822934       -7.6618861453
 C        -3.4528723113        2.0063301107       -7.1483400853
 O        -2.5581819200        1.8412832156       -7.9741806590
 C        -3.1363596666        2.2484890081       -5.5978026888
 C        -4.1801926895        1.4044746511       -4.8396884276
 O        -5.3002938288        1.8469176281       -4.8033247029
 C        -3.8487147692        0.0795816754       -4.1088407582
 C        -5.0782353762       -0.4175671114       -3.2737566159
 C        -5.3126643170        0.2695776421       -1.9055529168
 O        -4.6244173356        1.1972954368       -1.4902740979
 C        -6.6983076459       -0.0233696650       -1.2876438475
 C        -7.4333064149        1.4856536113       -1.2126537941
 O        -7.9905879499        1.8090958186       -0.1676447498
 C        -7.2495248927        2.3062919922       -2.4599141549
 C        -8.0147922473        3.6580146379       -2.4094231540
 C        -9.4542689039        3.5053394079       -2.9523531226
 O        -9.7356066771        2.5937357896       -3.6869004174
 C       -10.5960692457        4.4445501631       -2.3792442822
 C       -11.6216135518        3.7460596680       -1.3913335909
 O       -12.3466053929        4.4905436471       -0.7351097723
 C       -11.7345406945        2.2154929883       -1.3711700271
 C       -11.2272154415        1.5719614924       -0.1153993571
 C       -12.0805621110        1.6326164520        1.1184495333
 O       -13.2727583034        1.9994000406        1.0682889690
 C       -11.5916135509        1.1229145009        2.4255272137
 C       -11.6971419127        2.5125169370        3.3699607806
 O       -12.3164963462        3.4603033882        3.0283845301
 C       -10.8605604138        2.6564100987        4.6450612373
 C        -9.9703176486        3.8916158866        4.6038702150
 C       -10.8332081916        5.2057863512        5.0143062062
 O       -11.5868817081        5.0889445707        5.9457845629
 C       -10.6397719955        6.5527090288        4.2100548083
 C       -12.1383134410        6.9240530661        3.8397306999
 O       -12.6970464851        6.4903888887        2.8414346579
 C       -12.9958262446        7.7131290608        4.7976466012
 C       -14.4239228830        7.5766714863        4.5096073254
 C       -14.8356982636        8.3226772046        3.2346312926
 O       -14.1134290719        9.2737503898        2.9498118190
 C       -16.0734029505        7.9236061229        2.1506546405
 C       -15.3966905768        6.8645267538        1.2627357353
 O       -15.4855314317        5.6313316082        1.5253682928
 C       -14.4838909406        7.5180134787        0.1465527421
 C       -17.1882749514        7.3615275542        3.0604990649
 C       -16.5869658454        9.2502279519        1.4334473164
 C       -10.1155826955        7.6157288168        5.2223259916
 C        -9.8714344883        6.4582340486        2.8894356137
 C       -12.6086018259        0.0599351589        2.8983948686
 C       -10.1525453079        0.5532844916        2.5414479380
 C        -9.9973894056        5.6709221234       -1.6216344120
 C       -11.5360369921        4.8744160959       -3.5667356479
 C        -7.5674500988       -1.1210263284       -2.0063372269
 C        -6.5189573644       -0.4940523958        0.1628754136
 C        -1.6699906606        2.0188113750       -5.3603709902
 C        -3.3916904776        3.7732038905       -5.2728828778
 H        -5.2404135198        1.2113748157       -8.1884890980
 H        -4.9854587088        2.7845497490       -8.4680923031
 H        -5.5950017172        2.3741576274       -6.8653571844
 H        -2.8572219709        0.2364781813       -3.6082402160
 H        -3.6791585218       -0.7187186353       -4.8584749261
 H        -4.9400991220       -1.4584592087       -3.0264627600
 H        -5.9594171199       -0.3102528642       -3.8903560681
 H        -7.5186464529        1.6964920784       -3.3298119881
 H        -6.1807286934        2.4956010581       -2.4922782546
 H        -7.4653703034        4.4468255279       -2.9782737231
 H        -8.0289289852        3.9855454476       -1.3898800084
 H       -11.2031397307        1.8141542599       -2.2408217282
 H       -12.8010066099        1.9080999297       -1.5069580086
 H       -10.2446615156        1.9684277219        0.1532927150
 H       -11.1450629001        0.5123762061       -0.3961391090
 H       -10.2694486827        1.7370353565        4.9438958749
 H       -11.4975427408        2.7812999110        5.5106646115
 H        -9.4435697812        4.0202995207        3.5962856378
 H        -9.1499074711        3.6947047468        5.3225021411
 H       -12.6759708938        8.7171883438        4.9251285627
 H       -12.7768472728        7.2502437850        5.7530743999
 H       -15.0426540463        7.9417942895        5.3538767364
 H       -14.6807372869        6.5552888975        4.3723359711
 H       -14.9668850505        8.1246679314       -0.6344306438
 H       -14.0218557233        6.8487519768       -0.5212157692
 H       -13.6851977590        8.1512809955        0.6212621648
 H       -17.5940801018        8.2683834153        3.6220447806
 H       -16.7945851554        6.5657592058        3.6642079626
 H       -17.9821291164        6.9952184599        2.3729394737
 H       -16.9092374989        9.0020078486        0.4283876287
 H       -15.7868509386       10.0187377122        1.4740266626
 H       -17.4197335622        9.4843756385        2.0249042416
 H       -10.3225731143        8.5829988569        4.7812858311
 H        -9.0664932887        7.4851421178        5.3190655618
 H       -10.6345737562        7.5775006288        6.1946820042
 H       -10.2086265653        5.5970207110        2.3628042989
 H        -8.8231297774        6.3836116086        2.9384756805
 H       -10.1375443319        7.3592282185        2.2980177180
 H       -12.1713959510       -0.8874377172        2.5296264690
 H       -13.5918541138        0.2977192893        2.4230409136
 H       -12.7167943896       -0.0540786231        4.0156476779
 H        -9.4400811440        1.1598708861        1.9354382704
 H       -10.0273659529       -0.4168072174        2.0641271319
 H        -9.8136177636        0.3971672902        3.5866040486
 H       -10.8113545101        6.3462364433       -1.4743136127
 H        -9.1055242428        6.1409747099       -2.0317156950
 H        -9.7067746489        5.3802488014       -0.6551669070
 H       -12.3810368504        5.3363972055       -3.1092357148
 H       -11.7833967673        3.9969147499       -4.2408504216
 H       -10.9695356552        5.6168236477       -4.1371208728
 H        -6.9783157653       -2.0394563160       -2.1249953438
 H        -7.8627926076       -0.8382450973       -3.0053101989
 H        -8.5471217342       -1.3535192655       -1.5134113629
 H        -7.4963622010       -0.5528819541        0.6440116199
 H        -5.9061668119        0.2236987928        0.6233393488
 H        -6.1593148766       -1.5177217520        0.1760578307
 H        -1.0513264244        2.5778712392       -6.0776139692
 H        -1.2683352493        1.0061771033       -5.4432248832
 H        -1.4533130602        2.3783119201       -4.3884580008
 H        -3.0925013725        4.0097542055       -4.2028089106
 H        -4.4206480553        4.0204039879       -5.4225937047
 H        -2.8115695408        4.3452596147       -6.0194566178
 Na      -13.5096562189        4.4045411573        1.2321340863
