117

 C        -4.8347773568        2.0587969770       -7.6911873745
 C        -3.3628615499        2.0243255669       -7.1938736786
 O        -2.4470483363        1.7008329222       -7.8826347793
 C        -3.1732268762        2.2470351901       -5.6338783021
 C        -4.2494132159        1.4392023362       -4.8120062262
 O        -5.4254037859        1.8345073106       -4.7919976329
 C        -3.9074124958        0.0527457305       -4.1587786833
 C        -5.0680776210       -0.5203191272       -3.2623205113
 C        -5.3433978659        0.2919369937       -2.0181669998
 O        -4.6768813837        1.1486757897       -1.5054677879
 C        -6.7044019597       -0.0056265099       -1.2772774052
 C        -7.4388148945        1.3600054007       -1.2479202819
 O        -8.0426264419        1.6743856957       -0.2561651480
 C        -7.3155333243        2.3159982216       -2.4817116655
 C        -8.1100485159        3.6609432534       -2.4033610407
 C        -9.5269285651        3.4354477929       -2.8606421397
 O        -9.8470107651        2.5343443294       -3.6757828564
 C       -10.5773275883        4.4930659262       -2.4238168913
 C       -11.5764639990        3.8015935781       -1.4016689484
 O       -12.2640607267        4.5752012282       -0.7459997994
 C       -11.7000781305        2.2610756265       -1.3805085153
 C       -11.1226922801        1.5575931963       -0.1192396586
 C       -12.0729381527        1.6825154514        1.1355604736
 O       -13.1943987763        2.0650186546        0.9833417085
 C       -11.5422580323        1.2028976072        2.5573163434
 C       -11.6287150845        2.5074146394        3.4704449048
 O       -12.3245797204        3.4354384019        3.0867784117
 C       -10.8351806489        2.6941404150        4.7362857130
 C       -10.0231356597        4.0285850004        4.6110726808
 C       -10.8768155853        5.2094849590        5.0295632597
 O       -11.5633750413        5.1279900570        5.9959603180
 C       -10.7447408702        6.6265650034        4.2298664870
 C       -12.1921051830        6.8980868894        3.7456885969
 O       -12.6487375709        6.4313234621        2.7208990488
 C       -13.0172494429        7.7901001331        4.6903498075
 C       -14.4494659093        7.5192719943        4.3860870865
 C       -14.7720271480        8.4009986818        3.1438286072
 O       -14.1231124670        9.3820390947        2.8305730229
 C       -16.0263662413        7.9573346415        2.3069998523
 C       -15.4196423908        6.8668378556        1.3352892920
 O       -15.4774275541        5.6594462344        1.5133383785
 C       -14.5771525969        7.3357061031        0.2307839395
 C       -17.2791037058        7.4569594015        3.1035345348
 C       -16.4199262962        9.1482709717        1.4176060339
 C       -10.0982027898        7.5974955119        5.2827352858
 C        -9.8271109576        6.4424663315        3.0196257441
 C       -12.5849098076        0.0625489376        3.0462859888
 C       -10.1633954337        0.5951674832        2.4805666249
 C        -9.9847451917        5.7544048675       -1.7303914851
 C       -11.3807925484        4.9005448813       -3.6723290712
 C        -7.6119778505       -1.0707001971       -1.9544908952
 C        -6.4699930926       -0.4995434157        0.2244560838
 C        -1.6378698162        1.9679094296       -5.3078137170
 C        -3.3671526738        3.7685691222       -5.3053424687
 H        -5.1482089386        1.0528390967       -8.1127144238
 H        -4.9139500604        2.6009621824       -8.6028071263
 H        -5.5571318034        2.4481727567       -6.9532199737
 H        -2.9695869494        0.2155037501       -3.6100400431
 H        -3.6362453281       -0.5597127420       -5.0791232902
 H        -4.9720366135       -1.5302474917       -2.8976465732
 H        -5.9961004668       -0.4772572058       -3.8290372573
 H        -7.5590715894        1.8243043042       -3.4432029862
 H        -6.2498374677        2.5859738868       -2.4940521061
 H        -7.6826838920        4.3223800039       -3.0968114705
 H        -8.0292821312        4.1622855580       -1.3946690640
 H       -11.3341734686        1.8575081722       -2.2796677439
 H       -12.7759386507        2.0511567426       -1.3446085618
 H       -10.1180970789        1.8634148979        0.1147850358
 H       -11.1263143364        0.4858373853       -0.4543420004
 H       -10.1831434068        1.8428768057        4.9428881956
 H       -11.4676002879        2.7415437201        5.6902062602
 H        -9.6420691474        4.1795784221        3.5913731568
 H        -9.1032845788        4.0031234246        5.2376960998
 H       -12.7052991441        8.8178642278        4.4979182810
 H       -12.6746425262        7.6361860984        5.7324494888
 H       -15.1993981236        7.8394964376        5.1042148721
 H       -14.6543425134        6.4683884642        4.2064200534
 H       -15.1296448557        7.6653695263       -0.6044468238
 H       -14.1455290430        6.4850728715       -0.2863767003
 H       -13.8360123023        8.1077110235        0.4890959553
 H       -17.7501705283        8.3966379747        3.5144555316
 H       -17.1263612815        6.6065046124        3.8212576263
 H       -17.8990539131        7.1711864624        2.2581973080
 H       -16.7769107519        8.6866992858        0.4715214082
 H       -15.4920335199        9.7032042269        1.3027261663
 H       -17.1571241150        9.7222906586        1.8880205319
 H       -10.2197826029        8.6405565016        5.0071549795
 H        -9.0494348122        7.3639330370        5.3213217909
 H       -10.6523114840        7.4268106609        6.3155293334
 H       -10.3228782561        5.7518217757        2.2780634276
 H        -8.8824651779        6.0361571934        3.2355630935
 H        -9.6796982698        7.4037068215        2.5219370229
 H       -12.2759595223       -0.8054962692        2.5363155927
 H       -13.5539681710        0.4309107954        2.6637204908
 H       -12.6483919274       -0.1699669528        4.1366326314
 H        -9.5327246903        1.1473045714        1.8720398867
 H       -10.1855024228       -0.3554091204        1.8614661918
 H        -9.7089271641        0.2819935017        3.4253275691
 H       -10.7353738574        6.1667100645       -1.0791428543
 H        -9.6098094061        6.4605171220       -2.3799451640
 H        -9.1619406034        5.5679008600       -1.1008435148
 H       -12.2815961935        5.3490822742       -3.3609154668
 H       -11.5939176381        3.9971476390       -4.2573704717
 H       -10.7272927584        5.6001686542       -4.2485857647
 H        -7.0257162326       -2.0643580962       -1.9449065793
 H        -7.8432710035       -0.8578298383       -3.0451797847
 H        -8.5772080038       -1.2018622921       -1.5361508013
 H        -7.3726299743       -0.6572252264        0.8052817553
 H        -5.7725947248        0.2035623611        0.6462983872
 H        -6.0680982710       -1.4673069702        0.1186137438
 H        -0.9350618699        2.3806401639       -6.0472360290
 H        -1.3621946914        0.9003062300       -5.2687672267
 H        -1.3880179041        2.3760827083       -4.2902641112
 H        -3.0941798268        4.0191737667       -4.2553067967
 H        -4.4284109134        3.9821592273       -5.4117974576
 H        -2.8149074657        4.3422498765       -6.0621475568
 Na      -13.6247261041        4.3775423562        1.3010680705
