117

 C        -4.6756858869        2.0577580929       -7.7634214604
 C        -3.3557611471        1.8923858955       -7.1425111546
 O        -2.3729973116        1.5995358132       -7.7790963534
 C        -3.2370443432        2.2550896978       -5.5744431057
 C        -4.2482239344        1.4658046713       -4.8071199075
 O        -5.4291076142        1.8152116613       -4.7673003007
 C        -3.8776228645        0.1177896216       -4.1728899982
 C        -4.9643571481       -0.5161838763       -3.3683021239
 C        -5.3763243621        0.2248101016       -2.0863565219
 O        -4.5779699122        1.0104985623       -1.6431854189
 C        -6.7011040490       -0.0359713628       -1.2811650173
 C        -7.5029485648        1.2971826699       -1.2194304855
 O        -8.2410715340        1.6816018445       -0.3096111330
 C        -7.2525811187        2.1790603502       -2.4884122239
 C        -8.0775076391        3.4825417094       -2.3754235615
 C        -9.5103091719        3.4374201960       -2.8651314906
 O        -9.9470796217        2.5376840390       -3.5454644196
 C       -10.5887713135        4.5580694150       -2.4576610662
 C       -11.5854204169        3.8508679922       -1.3741486787
 O       -12.2078006227        4.5714136815       -0.6203672709
 C       -11.8323044462        2.3422484358       -1.3317481331
 C       -11.1080709479        1.6022477789       -0.1182684101
 C       -12.0359828714        1.6431577945        1.0678606754
 O       -13.1342782209        2.1256214627        0.9073518110
 C       -11.5505793985        1.2541285657        2.4574005354
 C       -11.6230730862        2.5014974687        3.4947469732
 O       -12.3676157461        3.4686556420        3.2508676127
 C       -10.7376324990        2.6321480519        4.7703639897
 C       -10.0238246208        4.0125478505        4.6351057741
 C       -10.8727421745        5.1487268756        5.0570442105
 O       -11.6120997379        5.2564358740        6.0490977737
 C       -10.7335562438        6.5076875614        4.2545298154
 C       -12.1181393639        6.8807183847        3.7347890906
 O       -12.5022484700        6.4030427778        2.6813005905
 C       -13.0458761982        7.7533056011        4.6346969584
 C       -14.5654355139        7.6198786769        4.3341001047
 C       -14.9427098357        8.5401011345        3.1165702811
 O       -14.1884042041        9.3730942840        2.7252128050
 C       -16.0707105813        8.0054566545        2.1559950962
 C       -15.3125309487        6.7816557320        1.3603212505
 O       -15.6407856693        5.6842841568        1.7778293469
 C       -14.5364818203        7.2249752333        0.1710302629
 C       -17.2467762055        7.4908465936        3.0933290507
 C       -16.3990905800        9.1750117124        1.2613311274
 C       -10.1654228107        7.5568420312        5.2417749422
 C        -9.6999643942        6.4959392885        3.0712040745
 C       -12.5210956920        0.2497207521        3.2242333672
 C       -10.1472595125        0.6506942407        2.4877547521
 C       -10.0403435600        5.8346141109       -1.8829933011
 C       -11.3106262738        4.9468613842       -3.8125291735
 C        -7.6708988888       -1.0045548650       -1.9466907396
 C        -6.3769480506       -0.4295239978        0.1673473441
 C        -1.7680284799        1.7960961033       -5.1763241290
 C        -3.4242907033        3.7799369521       -5.3957869922
 H        -5.1402006015        1.0647626645       -7.9957822283
 H        -4.5357236698        2.4188111556       -8.8381036646
 H        -5.3654967788        2.6849754799       -7.1811322540
 H        -3.0769521243        0.2659109134       -3.4710370654
 H        -3.4642070686       -0.4570680177       -5.0184337733
 H        -4.6584114642       -1.5181326909       -2.9702509696
 H        -5.8828921664       -0.6795242786       -3.9517908201
 H        -7.6087745846        1.6314168723       -3.3775878609
 H        -6.1870474389        2.4518919986       -2.6319052623
 H        -7.5354271846        4.2714430790       -2.8714249884
 H        -8.1538253214        3.8152560565       -1.3123005114
 H       -11.4944581480        1.9225505129       -2.2770999292
 H       -12.8792554360        2.2328005464       -1.2500127206
 H       -10.1889959185        2.1445589734        0.1759843679
 H       -10.8408770154        0.6060497683       -0.4782384289
 H       -10.0611343444        1.8197892677        4.9628381589
 H       -11.3492266508        2.6646641800        5.7202841005
 H        -9.6716472251        4.1928845023        3.6653366235
 H        -9.1189254370        4.1312842254        5.2525363031
 H       -12.5940721444        8.7886345448        4.5484302805
 H       -12.7754609851        7.5286151977        5.6989898436
 H       -15.2329230534        7.9414872310        5.1147938256
 H       -14.8924287741        6.5638165784        4.1465679368
 H       -15.2397049648        7.3729155270       -0.6432212668
 H       -13.8934129426        6.4891668795       -0.3609094201
 H       -14.0724884922        8.1410538201        0.3591066764
 H       -17.4941681688        8.3164730884        3.6799096395
 H       -16.8429924793        6.6363928523        3.7081637450
 H       -18.0767898074        7.1617013095        2.4754977906
 H       -17.1789688636        8.8425512488        0.6040914627
 H       -15.4759567396        9.4439835188        0.8127129454
 H       -16.6700678220       10.0698681798        1.9341869469
 H       -10.2811353086        8.6002593075        4.8016625942
 H        -9.0410140994        7.3750122389        5.4121203097
 H       -10.7329113731        7.5008375557        6.1108469222
 H       -10.0684832054        6.1382863544        2.0923025381
 H        -8.7503608571        5.8847627663        3.2909884828
 H        -9.3713596091        7.4998069252        2.9254780608
 H       -12.5983456592       -0.7147490691        2.7256159851
 H       -13.4424838803        0.7247998123        3.3853312935
 H       -12.0832676486        0.0869955142        4.1602732215
 H        -9.4043692468        1.3723715172        2.1839430995
 H        -9.9584151562       -0.0786305477        1.7173039084
 H        -9.9351630441        0.1437657564        3.3922175833
 H       -10.5844984014        6.2954304989       -1.0889450227
 H        -9.9149663158        6.5070201262       -2.7169960604
 H        -8.9908346060        5.8278145151       -1.5564044349
 H       -12.2078214605        5.6094893366       -3.6375345090
 H       -11.6804025438        4.0374426241       -4.2148157788
 H       -10.5523785488        5.4079614540       -4.4051844022
 H        -7.2913575738       -2.0317653808       -1.9866387547
 H        -7.9596382371       -0.6933569585       -2.9929465672
 H        -8.6365365703       -1.0092300467       -1.4411002865
 H        -7.2333312430       -0.5574410911        0.7841165231
 H        -5.6434000252        0.3408624409        0.4731756286
 H        -5.9164392917       -1.4084126501        0.1147140180
 H        -0.9936467662        2.0933315236       -5.8924972820
 H        -1.8010257737        0.7012988838       -5.3056146947
 H        -1.3534262349        1.9352504691       -4.1307624015
 H        -3.2910438300        4.0307073592       -4.3904659137
 H        -4.5332069460        3.9317229642       -5.5546620054
 H        -2.8277049174        4.3780651400       -6.0831409515
 Na      -13.6670745267        4.3643367755        1.3679322211
