117

 C        -4.6401790317        2.0702011142       -7.8756023747
 C        -3.3074274135        1.8758556484       -7.1335665588
 O        -2.2788396288        1.4519616750       -7.6481240738
 C        -3.2506492626        2.1574341822       -5.5823253769
 C        -4.3355758296        1.4234066658       -4.8351241896
 O        -5.4397465800        1.8550195706       -4.7637141607
 C        -3.8687403751        0.0494120958       -4.0810581366
 C        -4.9582214344       -0.6511688319       -3.4749671937
 C        -5.3169975775        0.1244511978       -2.0671680325
 O        -4.4424400224        0.9217081859       -1.7056760363
 C        -6.6873322296       -0.0255059904       -1.3212668816
 C        -7.5132101748        1.3270889365       -1.2955040591
 O        -8.2827834634        1.5894491495       -0.3664052957
 C        -7.3927266320        2.2236384507       -2.4965428682
 C        -8.1138405248        3.5194025302       -2.3325005141
 C        -9.5656772500        3.4108179200       -2.8304847379
 O        -9.9162161938        2.4665116675       -3.4677126075
 C       -10.5937450116        4.5718807513       -2.5104953374
 C       -11.6416513940        3.9535495414       -1.4074126115
 O       -12.0846666340        4.6344647932       -0.4993745675
 C       -11.9018246140        2.3959980302       -1.4085796824
 C       -11.1441475629        1.7814431145       -0.1811472681
 C       -12.0662598540        1.7771514631        1.0799968350
 O       -13.2580604684        2.1167319787        1.0109955166
 C       -11.5132576215        1.3541625137        2.5757152493
 C       -11.6087875089        2.6183862632        3.4359799664
 O       -12.4517567365        3.4726006015        3.3635649654
 C       -10.7305607482        2.5605251316        4.6664314645
 C        -9.9791204120        3.8753023280        4.7605451197
 C       -10.8131019316        5.2232992411        5.1135088468
 O       -11.6079347455        5.1849378325        6.0158771885
 C       -10.6530407024        6.6060506690        4.2931526875
 C       -12.1262466783        6.8389297444        3.6744482342
 O       -12.4905159473        6.3651986854        2.5987399309
 C       -13.0479109441        7.6397503048        4.6103036436
 C       -14.5203140446        7.7026171500        4.3003250361
 C       -14.7858773757        8.4447512031        3.0010319276
 O       -14.2358014841        9.4931163928        2.6919040202
 C       -16.1075263101        8.0555617366        2.0589753693
 C       -15.5412740136        6.8176791220        1.3789756764
 O       -15.5095539940        5.7008513259        1.9206814427
 C       -14.5987971825        7.0148586959        0.2121050486
 C       -17.2408968945        7.5668009857        2.9535457161
 C       -16.5971474646        9.2336490414        1.0675789306
 C       -10.1970709835        7.6679188151        5.3055034513
 C        -9.6029916297        6.5308802798        3.0614980142
 C       -12.5102956103        0.4027182480        3.3199936280
 C       -10.0581271700        0.7015439914        2.4948397138
 C       -10.0242466890        5.9292650776       -1.9306778283
 C       -11.3734344110        4.8338795652       -3.8218598180
 C        -7.7263427521       -1.0461166520       -1.9628749712
 C        -6.2607321525       -0.4151448674        0.1282828318
 C        -1.8155106105        1.7680076640       -5.0433885344
 C        -3.4147189013        3.7258996104       -5.4769217853
 H        -5.2021622249        1.1470180119       -7.7950695677
 H        -4.5037473807        2.1625591090       -8.9867630978
 H        -5.2666081065        2.8821664468       -7.4318966424
 H        -3.1714496282        0.1932157100       -3.2523168123
 H        -3.3436996689       -0.4202732144       -4.8678066885
 H        -4.6628791041       -1.7164996153       -3.2983027118
 H        -5.8927275514       -0.6504697419       -4.0891351797
 H        -7.8572505378        1.6808630354       -3.3275278117
 H        -6.3505836199        2.4241840073       -2.7498907024
 H        -7.4566672669        4.2797585617       -2.8899041260
 H        -8.1383008902        3.8577717972       -1.3295632856
 H       -11.4752495269        1.9485674009       -2.3411526192
 H       -12.9751952004        2.2392328990       -1.3684341101
 H       -10.1969452141        2.3454703274       -0.0275094712
 H       -10.8901095746        0.7685655732       -0.4348623317
 H        -9.9734589803        1.7513786222        4.6626666757
 H       -11.3161294662        2.3465007542        5.5005317672
 H        -9.3566338170        3.9676228048        3.8855105238
 H        -9.2683623226        3.8637067083        5.5664333120
 H       -12.4961074851        8.6118882075        4.7032451210
 H       -12.8933186522        7.2627994651        5.6285671686
 H       -15.0772981816        8.3112241812        5.0519699504
 H       -15.0362194973        6.7307774437        4.3166819403
 H       -14.8498583565        6.9887707338       -0.8767492068
 H       -14.0506954178        6.1143039930        0.2392075324
 H       -13.9380564309        7.8831173436        0.3087338134
 H       -17.4239843428        8.2603832045        3.7360149174
 H       -16.8956845283        6.6545014961        3.3498646842
 H       -18.0896902491        7.3382995541        2.3293414980
 H       -17.5881936562        8.9088501035        0.8402729603
 H       -15.8819806514        9.3792322504        0.2374664022
 H       -16.5424007782       10.1770809754        1.6714240888
 H       -10.1730447359        8.6907232750        4.8697765731
 H        -9.1875179785        7.4350186837        5.6946735746
 H       -10.9112029186        7.6187263833        6.0869087401
 H       -10.0243344114        6.0410609316        2.2042131914
 H        -8.6779863618        5.9382045764        3.3241268003
 H        -9.2711031234        7.5288048490        2.6995629615
 H       -12.8332962606       -0.4265270950        2.6913222630
 H       -13.3179613528        0.9376573119        3.7268410939
 H       -11.9858384291       -0.0030989026        4.1349301238
 H        -9.2717247514        1.4835597643        2.3864540196
 H        -9.8476158813        0.1871061077        1.6293066890
 H        -9.8412471939        0.0091440767        3.2748854467
 H       -10.6425686988        6.3792964235       -1.1367187609
 H        -9.8878676084        6.6667559069       -2.8026258749
 H        -8.9869351310        5.9431742919       -1.5381229931
 H       -12.0772819904        5.6764003313       -3.6752391504
 H       -12.0280382307        3.9655546782       -4.0468207308
 H       -10.6168242708        5.0999857716       -4.5142401629
 H        -7.3455223980       -2.0145705356       -2.0384807796
 H        -8.0911557394       -0.7109257372       -2.8979562264
 H        -8.6736258375       -1.1044416158       -1.3398573148
 H        -7.1424787656       -0.4750140776        0.7614424227
 H        -5.5038130416        0.3067398705        0.4122070467
 H        -5.8319949620       -1.4554225524        0.1065730403
 H        -1.0273288120        2.3903845162       -5.4935930950
 H        -1.6098100837        0.7252131840       -5.3438371988
 H        -1.6726257269        1.7533305990       -3.9844576631
 H        -3.3879799040        4.0292735305       -4.4461699769
 H        -4.4599722462        3.8450236513       -5.7007687388
 H        -2.7565185987        4.3143531468       -6.1045741892
 Na      -13.6415568430        4.3772878495        1.4746272814
