117

 C        -4.1937976144        1.9952799763       -7.9800059563
 C        -3.0655354938        1.5397172166       -7.0535632442
 O        -2.1570905280        0.8326726242       -7.4012284999
 C        -3.0772076620        2.1325483421       -5.4981795620
 C        -4.2727477295        1.2630180602       -4.9145462965
 O        -5.3795856353        1.6946797486       -4.8898707345
 C        -4.0146597742       -0.2104923578       -4.4230849459
 C        -5.2326904332       -0.6882756861       -3.6451366444
 C        -5.3218426586        0.0426374562       -2.2217409579
 O        -4.3591712515        0.5916722751       -1.7422656151
 C        -6.6253927882       -0.0686288648       -1.3907157759
 C        -7.4256132779        1.3073175179       -1.2842366049
 O        -8.2693970825        1.3553094043       -0.4023209067
 C        -7.2927867901        2.4188496200       -2.3711327913
 C        -8.2296209887        3.6049566892       -2.1933366946
 C        -9.7306197981        3.3623142703       -2.6508296757
 O       -10.0613223965        2.3826568915       -3.3074824174
 C       -10.7703747087        4.5060020276       -2.3727841141
 C       -11.6551190964        4.2021799616       -1.1255067785
 O       -11.7725175438        5.0248052898       -0.2243994810
 C       -12.3771475692        2.8055548555       -1.1803377584
 C       -11.7773958962        1.8158257617       -0.1348400415
 C       -12.3678983996        1.9902078881        1.2931542525
 O       -13.5276591039        2.4345218645        1.3879242029
 C       -11.5731938592        1.5022542910        2.5859547265
 C       -11.4943637368        2.7251927867        3.5871683035
 O       -12.1407849502        3.7128417609        3.5652985877
 C       -10.5764170345        2.6337185775        4.7997517119
 C        -9.8339038930        4.0029684299        4.9103234746
 C       -10.8713391510        5.2321389893        5.1769724609
 O       -11.6417058255        5.2415718551        6.0773297941
 C       -10.6708602800        6.5855739966        4.2504975187
 C       -12.0891114147        6.9591869245        3.6895001566
 O       -12.3509638524        6.4665293146        2.5979690803
 C       -12.9833263327        7.8557889986        4.5343208610
 C       -14.5057327366        7.6376163757        4.0920571289
 C       -14.8288721618        8.4692228921        2.8079581259
 O       -14.2404054459        9.4703466443        2.5488907885
 C       -16.0134230350        7.9580453055        1.8704731256
 C       -15.4963844517        6.7035287732        1.2071881420
 O       -15.2944934152        5.6583813174        1.8344951615
 C       -14.9954947612        6.6837186206       -0.2524898278
 C       -17.2618634928        7.6710397565        2.7265316434
 C       -16.4595859994        9.0782353407        0.8961436855
 C       -10.2239823267        7.6802847486        5.2355918671
 C        -9.6845316185        6.4775932612        3.1141706344
 C       -12.3520306052        0.3411956259        3.2693108117
 C       -10.1421019916        1.0989778362        2.2652969363
 C       -10.1324062587        5.9235607216       -2.2683915718
 C       -11.7652326564        4.4979619096       -3.5573715268
 C        -7.5543221577       -1.1564766058       -1.9861466473
 C        -6.3563648639       -0.4756837520        0.0678826792
 C        -1.7200888633        1.9380478349       -4.8997502496
 C        -3.5623227561        3.6107868282       -5.5127282261
 H        -5.0931753702        2.2657698239       -7.3870038527
 H        -4.3641667850        1.1638488181       -8.6760544529
 H        -3.9145505210        2.9090056131       -8.6039377101
 H        -3.0348923220       -0.0859365794       -3.9600867716
 H        -3.9269959287       -0.9132200352       -5.2207672851
 H        -5.0683187005       -1.7763774998       -3.4907979905
 H        -6.1450541346       -0.6683629327       -4.2718045328
 H        -7.4853005939        1.8930992870       -3.3265160520
 H        -6.2316818239        2.7260628096       -2.3758913454
 H        -7.8345570057        4.5166308043       -2.7625074485
 H        -8.1660948768        3.8829466990       -1.1783454088
 H       -12.2201846118        2.4377141094       -2.1845738017
 H       -13.4243572844        2.8639234334       -0.9794610031
 H       -10.6641020374        1.8656584866       -0.1148212678
 H       -11.9718118822        0.7905780903       -0.4386761463
 H        -9.7673598987        1.8442201291        4.7134298309
 H       -11.1463721040        2.4381645570        5.6826454157
 H        -9.2698731658        4.2290353853        4.0111907653
 H        -9.1348942205        3.9726342037        5.7128509026
 H       -12.6295141601        8.9405046401        4.4812425020
 H       -12.7852233432        7.6375113041        5.6114168015
 H       -15.1072395505        8.0227137460        4.9332225358
 H       -14.8046263847        6.5993653793        3.9450503090
 H       -15.5680928637        6.9367949575       -1.1360094161
 H       -14.6537020590        5.7253047364       -0.3983111437
 H       -14.1511625200        7.3552141876       -0.4169175820
 H       -17.5883746361        8.6032934902        3.2628302835
 H       -17.0361440247        6.9376056063        3.4593638695
 H       -18.0084633578        7.1807371343        2.0820220822
 H       -17.0043501800        8.5868900372        0.0769977781
 H       -15.6276294964        9.7637270923        0.6051759435
 H       -17.1027521701        9.7406191984        1.4394040360
 H       -10.2409648645        8.6455751108        4.7153222708
 H        -9.1856061682        7.5735712959        5.5235186588
 H       -10.7652726539        7.6663001340        6.2719073927
 H       -10.0669195018        5.7987974414        2.3647257690
 H        -8.6758530327        6.2335097137        3.4243561994
 H        -9.6063398711        7.4449467577        2.5380521462
 H       -12.1205661570       -0.5689556502        2.7472299923
 H       -13.4202335639        0.4622222703        3.2424444334
 H       -12.0230669893        0.2596837503        4.2927759092
 H        -9.5352774679        1.9516357420        1.8907249271
 H       -10.1786648229        0.4266675765        1.4419875406
 H        -9.5322701043        0.6358306606        3.0434341199
 H       -10.6291688769        6.7385461756       -2.7710870548
 H        -9.1215162033        6.0607759323       -2.6458265817
 H       -10.0988874630        6.1067260241       -1.2280450168
 H       -12.6846044352        4.8943578547       -3.2046863368
 H       -12.0272921585        3.4650436260       -3.8448036887
 H       -11.4129913399        5.1476567963       -4.3365814594
 H        -7.1030009680       -2.1474924384       -1.8982708159
 H        -7.8588579791       -0.9153183088       -2.9986242542
 H        -8.4821170598       -1.2291784939       -1.3049894520
 H        -7.3184328486       -0.4569990177        0.5712609456
 H        -5.6561803103        0.1758905542        0.5238548314
 H        -5.8610739034       -1.4540188291        0.0239208857
 H        -1.1086072076        2.5619976414       -5.6007231248
 H        -1.3608109449        0.8805664810       -4.9312132386
 H        -1.5223767638        2.2595135481       -3.8893117248
 H        -3.5421352937        3.9877490697       -4.4679043050
 H        -4.5836110904        3.6485490523       -5.8096175433
 H        -2.8636615710        4.2708178491       -6.0289400387
 Na      -13.2611170837        4.6180651653        1.5796560064
