117

 C        -3.3274088217        1.8565156453       -8.2383476972
 C        -2.8642410007        1.2140532021       -6.9567430582
 O        -2.4049674371        0.0906643133       -6.9371782021
 C        -3.0931045713        1.9596805729       -5.6333004931
 C        -4.2930007775        1.3325226787       -4.9003827890
 O        -5.3965297498        1.9169382182       -4.8946974076
 C        -4.2466464112       -0.1657727793       -4.4365229042
 C        -5.4183132889       -0.5714972348       -3.6438357095
 C        -5.6405038974        0.1615117630       -2.3134304624
 O        -4.9184770219        1.0821199593       -1.9487395253
 C        -6.9129934864       -0.1925031223       -1.4366185250
 C        -7.6758646348        1.1687517286       -1.2674630823
 O        -8.4118502167        1.3517520310       -0.3133450442
 C        -7.4052063109        2.2735717734       -2.2888725915
 C        -8.3244273235        3.4353302394       -2.2536084800
 C        -9.7775366128        3.1368492928       -2.4146872785
 O       -10.2110576025        2.0266625426       -2.5152141592
 C       -10.8610079807        4.3258310853       -2.3639108546
 C       -11.6426912168        4.0264425561       -1.0547034735
 O       -11.3796921379        4.7529463225       -0.1156035636
 C       -12.5746275628        2.7595681800       -0.9723084171
 C       -11.9051360408        1.8088066210        0.0117713810
 C       -12.4353172664        2.0486403446        1.4546170571
 O       -13.5728698677        2.4743810115        1.5963665706
 C       -11.5524759510        1.7088450641        2.7127151475
 C       -11.2878760127        3.0227536735        3.5154495111
 O       -11.6008561592        4.1549867497        3.1383844086
 C       -10.5892188527        2.9553947308        4.8872434897
 C        -9.8693498643        4.2680099241        5.2641159560
 C       -10.8922912691        5.4851485717        5.2347996125
 O       -11.8484158400        5.3488515049        5.9992554145
 C       -10.6889527068        6.7286286125        4.3385064408
 C       -12.0847189266        7.1798113304        3.7180164345
 O       -12.2765929826        7.0783602366        2.5253610046
 C       -13.2550420381        7.6007376684        4.6335143847
 C       -14.5421912985        7.5004006427        3.9619185585
 C       -14.5896426603        8.2680191023        2.6726950717
 O       -13.9248587377        9.2474453884        2.3981698005
 C       -15.8525212408        7.8886504594        1.7302599693
 C       -15.4626850952        6.6800809097        0.8585594794
 O       -14.9275342641        5.7056572937        1.4073157761
 C       -15.4306688846        6.8047478447       -0.5999572564
 C       -17.0235437004        7.4640990745        2.6123491385
 C       -16.3709379818        9.0714971403        0.8138486111
 C       -10.0289655615        7.8362044226        5.1349918963
 C        -9.7063896209        6.3996478949        3.1563885675
 C       -12.3262221750        0.6005614110        3.5470683679
 C       -10.1128988179        1.2684297174        2.2551352115
 C       -10.2594589126        5.7170878648       -2.2885091470
 C       -11.7654701071        4.1962086009       -3.5749802513
 C        -7.7784036883       -1.2244461789       -2.1672718528
 C        -6.6506944506       -0.7228508817        0.0461812200
 C        -1.7546136884        1.8919323869       -4.7893019276
 C        -3.3734509088        3.4891632700       -5.8295689299
 H        -4.3746376964        2.2500255941       -8.0856904507
 H        -3.2486049271        1.1392901273       -9.1088304213
 H        -2.6656875333        2.7413385841       -8.4044441836
 H        -3.3526860634       -0.1845962901       -3.8332908242
 H        -4.0849300161       -0.6792270360       -5.3657096079
 H        -5.5048574960       -1.6518983990       -3.4354213251
 H        -6.3801869494       -0.3397758003       -4.1711378800
 H        -7.3738979635        1.8293459401       -3.2932140993
 H        -6.3987652015        2.6943875868       -2.1149174338
 H        -7.9258706575        4.0987187678       -3.0320617603
 H        -8.1997501338        4.0183222135       -1.3282207938
 H       -12.6976963202        2.2628550627       -1.8842528805
 H       -13.5485797538        3.1212377522       -0.6312134521
 H       -10.8467782175        1.7670651887       -0.1600677832
 H       -12.1686739382        0.7570824293       -0.2421975181
 H        -9.8560818917        2.1889356277        4.9697508305
 H       -11.3638195962        2.8725095822        5.6784581980
 H        -8.9817838370        4.4790263806        4.6956786009
 H        -9.6214920912        4.1976309846        6.3025767059
 H       -13.1054512506        8.5920462466        5.1328826087
 H       -13.1573419049        6.8284530140        5.4730754334
 H       -15.3300976497        8.0199336325        4.5483798524
 H       -14.7758156378        6.4642515128        3.7432984620
 H       -16.3418283065        6.6892990278       -1.0679816927
 H       -14.6695240898        6.2054085615       -1.1476586747
 H       -15.1712546452        7.7868727849       -0.8822661965
 H       -17.4463312136        8.3026843145        3.1683120335
 H       -16.7675709965        6.6413785856        3.3383668134
 H       -17.8829432814        7.1688500658        2.0254937898
 H       -17.4107675750        8.9657970169        0.4292401322
 H       -15.7497277779        9.1874550568       -0.0514210286
 H       -16.4362814844       10.0005733469        1.3873173934
 H        -9.8874776935        8.8254921488        4.5955766900
 H        -9.0615566969        7.4952609734        5.6303129331
 H       -10.6381542263        8.0819235341        5.9266275933
 H        -9.8086576872        5.3292450248        2.8681815749
 H        -8.6735862505        6.5417728792        3.4132750846
 H        -9.9108213761        6.9996040875        2.2711948428
 H       -12.3723495451       -0.3650991132        3.0637162456
 H       -13.3708492468        0.9167941304        3.6687519870
 H       -11.8769822645        0.4749171221        4.5448902831
 H        -9.7050864743        1.8683282490        1.4726729183
 H       -10.1421368416        0.1714554751        2.0105332437
 H        -9.3966175731        1.3774222387        3.0828311623
 H       -10.8867057096        6.5117063132       -1.8790815675
 H       -10.0444825366        6.0353743496       -3.2693469541
 H        -9.3130122656        5.7693769662       -1.7645285904
 H       -12.1983811867        5.1514308857       -3.7898508794
 H       -12.4010062746        3.3590451739       -3.5267975617
 H       -11.1165596717        3.9197606069       -4.4272441355
 H        -7.1269644931       -2.1537352398       -2.2820855204
 H        -8.0433688197       -0.9168477711       -3.2175615055
 H        -8.6488272126       -1.3710145098       -1.5975217377
 H        -7.6144669431       -0.6588930930        0.5414386830
 H        -6.0108850112       -0.0147535672        0.5645410294
 H        -6.2135858040       -1.6812078501       -0.0008442788
 H        -1.0458275109        2.7066650896       -4.9473578779
 H        -1.1465814366        1.0271427395       -5.0288151772
 H        -2.0517918283        1.9367720451       -3.7037448257
 H        -3.2947168018        3.8433094724       -4.7859102097
 H        -4.4017031345        3.5752188164       -6.1684336059
 H        -2.7943677132        4.1282915188       -6.4859610275
 Na      -12.8160011478        4.9551895542        1.6025753698
