117

 C        -3.1667944861        1.8321920688       -8.2971834592
 C        -2.7901530200        1.1794554682       -6.9402366665
 O        -2.5226047656        0.0017202287       -6.8253482713
 C        -3.0820683157        2.0281873258       -5.5690185748
 C        -4.2813826061        1.3353903304       -4.9375870399
 O        -5.3439730801        1.8980269908       -4.8589198077
 C        -4.1872496107       -0.1532452060       -4.3763128837
 C        -5.4680656146       -0.5532932440       -3.7297889608
 C        -5.7182845219        0.0903921190       -2.2822537224
 O        -4.9657401322        0.9998263764       -1.9555706083
 C        -6.9898277943       -0.1776476117       -1.4090517156
 C        -7.7176979927        1.2152257656       -1.2202009341
 O        -8.4961430493        1.3833839713       -0.2742498012
 C        -7.4104427561        2.2334700780       -2.3152050955
 C        -8.2950255646        3.4532929967       -2.2883026995
 C        -9.7810276747        3.0200665163       -2.3939893528
 O       -10.1479822009        1.8660379688       -2.4525822502
 C       -10.8444085492        4.2638443337       -2.4438334673
 C       -11.6110687685        4.0138107092       -1.0708238566
 O       -11.4511053670        4.7266751399       -0.1004117813
 C       -12.4728327969        2.7598503315       -0.9513715465
 C       -11.9712068090        1.7488661688        0.0626791781
 C       -12.4421026432        2.1058685594        1.5218614282
 O       -13.4800050652        2.6281103399        1.7169624519
 C       -11.4781431893        1.7742129100        2.7434525470
 C       -11.2659337938        3.1076513632        3.5796157686
 O       -11.5176193914        4.2145402621        3.1438041332
 C       -10.5594640780        2.9427556753        4.9614911296
 C        -9.8801012910        4.2787146179        5.3492339993
 C       -10.9270289890        5.4858033931        5.2603353670
 O       -11.8854787792        5.3636183010        5.9623937235
 C       -10.6760279499        6.7202688482        4.2927318534
 C       -11.9974141950        7.0767658919        3.6391970891
 O       -12.2781447448        7.0151692018        2.4679276974
 C       -13.1654276683        7.6029520493        4.5783799816
 C       -14.5140552115        7.4234455085        3.9038627509
 C       -14.7176004271        8.3440009696        2.6183746380
 O       -13.9548693218        9.2065678688        2.3385418045
 C       -15.9195523496        7.9288287439        1.6925874538
 C       -15.2887642828        6.7528935305        0.8160448255
 O       -14.9899665022        5.7696100179        1.4708227849
 C       -15.4376455530        6.8218103068       -0.7108287771
 C       -17.0351222711        7.3737598318        2.5936930126
 C       -16.2979296185        9.2341011403        0.9296367878
 C       -10.1979366086        7.9505340445        5.2027593137
 C        -9.6262306272        6.4338625965        3.1520592464
 C       -12.2597557374        0.7850261374        3.5554471525
 C       -10.1343680589        1.1787051663        2.3484632970
 C       -10.2796977508        5.6523544193       -2.4278237173
 C       -11.8729016366        4.2278677730       -3.6557347643
 C        -7.9356343195       -1.1952934639       -2.1601312805
 C        -6.6102490344       -0.7169398141       -0.0681485662
 C        -1.7695339423        1.8325505900       -4.7681708833
 C        -3.3882058480        3.4948333294       -5.9467542373
 H        -4.2339698325        2.0050441473       -8.4564874944
 H        -2.6776846951        1.1766939274       -9.1138314122
 H        -2.5758311965        2.7556023391       -8.2739227652
 H        -3.3277785776       -0.1366592312       -3.7574448518
 H        -4.0086173981       -0.7326889743       -5.2888129213
 H        -5.4900137165       -1.6461928626       -3.4687513710
 H        -6.3058058271       -0.4060385190       -4.4447083147
 H        -7.5260174765        1.6714826962       -3.2354813640
 H        -6.3798599833        2.5600114200       -2.3108544931
 H        -7.9924092993        4.0551125397       -3.0993558296
 H        -8.1086227722        4.1172009400       -1.3631204392
 H       -12.4770310291        2.2071369628       -1.9192293828
 H       -13.4814372460        3.1562113617       -0.7658902158
 H       -10.8983107317        1.6704166677       -0.0397185953
 H       -12.2694025709        0.7369939230       -0.2371363538
 H        -9.8918676584        2.1425413882        4.9813122303
 H       -11.3155243074        2.8726256014        5.7452792932
 H        -9.0907127003        4.5421618235        4.7111209434
 H        -9.5140369443        4.2441937379        6.3822575429
 H       -12.9955628424        8.6731338840        4.7792616006
 H       -13.1596882592        7.1067949361        5.5789412039
 H       -15.2848185862        7.6279425017        4.6397445399
 H       -14.5418549314        6.3752016383        3.5063231508
 H       -16.5396155112        6.7763772162       -0.8460217377
 H       -14.9772500919        6.0442579770       -1.2846814291
 H       -15.1398592675        7.6763823166       -1.2975773256
 H       -17.3397397066        8.0538647091        3.3115242478
 H       -16.6456441589        6.4924557894        3.0823057900
 H       -17.9706831866        7.1465027666        2.1127531020
 H       -17.1304996711        9.1837789613        0.2450174198
 H       -15.4643013625        9.5003661923        0.2888380225
 H       -16.6176611112       10.0595346181        1.6587464373
 H       -10.0979719950        8.8901345869        4.6661599673
 H        -9.2787806281        7.7404306613        5.7846484983
 H       -10.9775645714        8.1909907081        5.9113289563
 H        -9.7710301802        5.3940268026        2.8467642878
 H        -8.5076275837        6.4962325556        3.4540904432
 H        -9.7791799163        7.0604839365        2.2977884783
 H       -12.1116453353       -0.2594274558        3.2289415559
 H       -13.2849654486        0.9815780148        3.5327758710
 H       -11.9357946233        0.8158986054        4.5387597254
 H        -9.4267235322        2.0358467170        2.0649886085
 H       -10.1612915212        0.3851038206        1.6445296715
 H        -9.7449065291        0.7503752836        3.2602782551
 H       -11.0440989096        6.3998043189       -2.5241350074
 H        -9.5539656936        5.8005805765       -3.2905102698
 H        -9.7092248972        5.9540933045       -1.5230608134
 H       -12.3889688765        5.2295933409       -3.6941746517
 H       -12.4568318842        3.3445055843       -3.6780542194
 H       -11.3416851263        4.1168152707       -4.5492419343
 H        -7.3561190707       -2.0833166002       -2.2339552405
 H        -8.0423738045       -0.8512368399       -3.2004542939
 H        -8.9311464183       -1.3176220433       -1.7007416719
 H        -7.5534829008       -0.7873357367        0.4441222234
 H        -6.0242716427        0.0389595282        0.4728784851
 H        -6.1166724122       -1.6786177512       -0.1827789421
 H        -0.8346775059        2.2809916806       -5.1041122611
 H        -1.5250375075        0.7642886879       -4.8486408651
 H        -1.9465567036        2.1473679369       -3.7073287513
 H        -3.4174968637        4.1314772950       -5.1149400327
 H        -4.3363819661        3.5116479180       -6.5453970161
 H        -2.6609040366        3.8821720231       -6.6530705317
 Na      -12.8151323998        4.9440879646        1.6416293728
