117

 C        -2.5253147462        1.5783310703       -8.2528960545
 C        -2.8170427334        0.9419298330       -6.9015810952
 O        -2.7469129411       -0.2617361152       -6.7595055024
 C        -3.0395989606        1.9195138737       -5.6823784717
 C        -4.3419460363        1.3329157189       -4.8937277409
 O        -5.3807865068        1.9856409980       -4.8301218088
 C        -4.2214272195       -0.0827806894       -4.2962206057
 C        -5.4877159129       -0.5848063361       -3.7253843523
 C        -5.7071802481       -0.0950609299       -2.3036776371
 O        -4.7999888124        0.4883785571       -1.7017400710
 C        -7.0351980113       -0.2609320457       -1.4992739554
 C        -7.6232455728        1.2274954569       -1.2593074596
 O        -8.4067349559        1.4783643716       -0.3370108483
 C        -7.4010853181        2.2735826559       -2.3896359283
 C        -8.4216200923        3.4064902014       -2.3867816367
 C        -9.8436651551        2.9896607790       -2.5947796630
 O       -10.2189011584        1.8735013209       -2.8271837055
 C       -11.0358029603        4.1672596851       -2.5132413463
 C       -11.7613570709        3.9393197078       -1.1695201154
 O       -11.6631396345        4.8298454171       -0.3594690391
 C       -12.5792800929        2.6466093565       -0.8631540302
 C       -11.7929197030        1.7821361543        0.1858748910
 C       -12.1808526591        2.2466517526        1.7070500468
 O       -13.1682290800        2.8587998465        1.9420141233
 C       -11.3823254939        1.7171147282        2.9704376660
 C       -11.0769266853        3.0977511354        3.7765315090
 O       -11.4242790888        4.1646634784        3.3174030311
 C       -10.3403668396        3.0501926235        5.0931253591
 C        -9.7270102339        4.4337647797        5.4808864941
 C       -10.7805847797        5.5696169619        5.3606177087
 O       -11.8646887385        5.4677977902        5.8871318258
 C       -10.5023012722        6.9033749807        4.4590730549
 C       -11.8793202612        7.0980671153        3.5694959684
 O       -11.9144417673        6.7585589387        2.4260257287
 C       -13.0489961258        7.7164844639        4.3858080625
 C       -14.5307371822        7.4209860080        3.8631238724
 C       -14.8642111627        8.3411779212        2.6793391674
 O       -14.2197564683        9.2710498542        2.3263532232
 C       -16.0731213388        8.0647375052        1.6673662122
 C       -15.5377427345        6.9736357615        0.7112260106
 O       -15.1422610760        5.9195173245        1.1824474059
 C       -15.4686829206        7.0954254082       -0.7570174786
 C       -17.2259086400        7.5121941118        2.3443818300
 C       -16.4777375070        9.3293799311        0.8541550214
 C       -10.2242958436        7.9889697007        5.4944859436
 C        -9.3216512580        6.7560759511        3.4915226375
 C       -12.3755387844        0.8541419139        3.7947597710
 C       -10.0601932267        1.0055065078        2.7026203723
 C       -10.5668732606        5.6234325329       -2.6500203618
 C       -11.8987877292        3.8174155327       -3.7712956040
 C        -8.1694148011       -1.0405805174       -2.2272971560
 C        -6.6919648404       -0.9115745544       -0.1135819049
 C        -1.8299148130        1.8148771341       -4.7467926381
 C        -3.3602928026        3.3628687560       -6.0546718505
 H        -3.4701573019        1.6990275682       -8.7349644722
 H        -1.8899575770        0.8903926895       -8.9137137968
 H        -1.9935532481        2.4858894678       -8.0583084283
 H        -3.4749249161        0.0879617954       -3.5109308610
 H        -3.8223936235       -0.7389749169       -5.0745366287
 H        -5.3259885027       -1.6676845553       -3.6658751347
 H        -6.4268842771       -0.3909216874       -4.2545125066
 H        -7.2245896199        1.7255652543       -3.3296102099
 H        -6.4658257526        2.8332552032       -2.1659032277
 H        -8.1443153426        4.0939997523       -3.1729544390
 H        -8.3175567329        3.9579985620       -1.4391739527
 H       -12.7361428886        2.1025430849       -1.7492738286
 H       -13.5368533147        2.8746985401       -0.3939798975
 H       -10.7296308189        1.7385288390       -0.0177769576
 H       -12.1483470647        0.7079308421        0.1321133312
 H        -9.4859303611        2.3905027460        5.1446595558
 H       -11.0807516856        2.7346757062        5.9136901400
 H        -8.8092673722        4.6432183690        4.9484173505
 H        -9.4884276052        4.5438850614        6.5526258311
 H       -12.7712475690        8.7614172419        4.5299061658
 H       -13.0306436760        7.2139092152        5.3914719747
 H       -15.1417407958        7.7426662193        4.7058115214
 H       -14.6953966677        6.3865916559        3.5932622191
 H       -16.2401702079        7.7061284695       -1.2221196291
 H       -15.4271643600        6.1493938949       -1.3409679646
 H       -14.4977192249        7.4750271354       -1.0185453116
 H       -17.6322759156        8.0521785305        3.2060176397
 H       -17.0397816961        6.4591560038        2.7830343291
 H       -18.1184500651        7.4189738727        1.6672500413
 H       -16.8050614682        9.1641596452       -0.1440307097
 H       -15.6654243853        9.9743625708        0.6623667602
 H       -17.2872981030        9.9420397844        1.3547451421
 H       -10.4491478087        9.0414801425        5.2187301588
 H        -9.1409876972        8.0340051069        5.8084825290
 H       -10.8500008954        7.8717931533        6.3130464704
 H        -9.5976157548        6.1605956609        2.6384395576
 H        -8.4507814166        6.2478819078        3.9154442906
 H        -9.0500381249        7.7174561285        3.1944362907
 H       -12.9640708181        0.0630156341        3.2143538920
 H       -13.0846631347        1.5182917864        4.3369744929
 H       -11.8636745129        0.2374659235        4.5622394830
 H        -9.2507178898        1.7495940634        2.5709072867
 H       -10.1844177534        0.4946483205        1.7384259208
 H        -9.9278467782        0.1944744266        3.3799154056
 H       -11.4029826708        6.2440211702       -2.4770613115
 H       -10.0036437468        5.8029836381       -3.5334314217
 H        -9.9222570361        5.9532418583       -1.8388145343
 H       -12.9790520053        3.9925795175       -3.5333799433
 H       -11.7082933855        2.8166020987       -4.0857286651
 H       -11.6828070328        4.4265137385       -4.6564586572
 H        -7.8769464395       -2.0259591369       -2.6510866101
 H        -8.4963740326       -0.2803350950       -2.9676965019
 H        -8.9965364860       -1.1376239778       -1.5804874777
 H        -7.5530098958       -0.8852726767        0.5586143479
 H        -5.8605678087       -0.2900854846        0.2721493147
 H        -6.4876961688       -1.9486727404       -0.2737297145
 H        -1.0243527675        2.1619302548       -5.3545138438
 H        -1.5401641554        0.8171024064       -4.5684968478
 H        -1.8106022446        2.4747531408       -3.8689437898
 H        -3.8196406379        3.8417040933       -5.1892569459
 H        -4.0751660997        3.5024329713       -6.9038641147
 H        -2.4612210051        3.8932987641       -6.3639892991
 Na      -13.0066177505        5.0158348519        1.4069602787
