117

 C        -2.3447681881        1.5525946453       -8.2246045864
 C        -2.7171990052        0.9404672466       -6.8546014758
 O        -2.8184143137       -0.2542339581       -6.7265206843
 C        -3.0566722215        1.8764330615       -5.7132021461
 C        -4.3612291840        1.2826276656       -4.9009425294
 O        -5.3256283656        1.9661271358       -4.8464957437
 C        -4.2384084111       -0.1963665699       -4.2980919571
 C        -5.5856455586       -0.5931180249       -3.6823286527
 C        -5.6361967421       -0.1285472671       -2.1269744578
 O        -4.6519097657        0.3811884842       -1.6757155651
 C        -7.0884085295       -0.2368346277       -1.4200023968
 C        -7.7338630700        1.1803337565       -1.3136136736
 O        -8.3123771341        1.5002822818       -0.2991471717
 C        -7.4460101320        2.2759998714       -2.3652108622
 C        -8.4070078945        3.4789337735       -2.3634410593
 C        -9.8886986706        2.9902228299       -2.6648375859
 O       -10.0661326626        1.8175155534       -2.9827617534
 C       -11.1295315099        4.0127069591       -2.5805093017
 C       -11.8121482735        3.9086947073       -1.2081129421
 O       -11.7775681236        4.9080834652       -0.4605649116
 C       -12.4365728746        2.6345538137       -0.7119392242
 C       -11.6604004018        1.8838236545        0.3674550970
 C       -12.1458889202        2.1904599619        1.7678209815
 O       -13.2002872359        2.7529154104        1.8551847011
 C       -11.3575400494        1.7725026934        2.9948455425
 C       -11.0170492597        3.1483965018        3.7749750222
 O       -11.4241349112        4.2118220670        3.3081596932
 C       -10.2708758392        3.0837828944        5.0511650210
 C        -9.6695228994        4.4481364579        5.4714065662
 C       -10.7558749806        5.5259052009        5.3064997965
 O       -11.8002966945        5.5045864373        5.9033110610
 C       -10.4860924999        6.9099714610        4.5379002686
 C       -11.8067264527        7.1236816380        3.7767633741
 O       -11.7954007440        6.8322544204        2.5831497140
 C       -13.1476590253        7.6675139553        4.4319972020
 C       -14.4949505853        7.4305414069        3.6254929508
 C       -14.8494868935        8.4874739899        2.5097894166
 O       -14.1961946173        9.4948100608        2.3402771109
 C       -16.1941282861        8.0864399523        1.6323160315
 C       -15.6158936382        6.9853345558        0.6170976270
 O       -15.2709336541        5.9171718981        1.1162876048
 C       -15.3658666048        7.2450157069       -0.9002702063
 C       -17.3783687843        7.4691952509        2.4990829555
 C       -16.5264522623        9.3587979531        0.8713983018
 C       -10.2219497444        8.0299428402        5.5899772009
 C        -9.2993828068        6.8447310223        3.5725454499
 C       -12.3285893887        0.8856139207        3.8370605553
 C       -10.0580050333        0.9073466591        2.7600905471
 C       -10.7094706840        5.5156032155       -2.7123609264
 C       -12.0748231387        3.6972128782       -3.7887183161
 C        -8.0993344087       -1.0336232478       -2.3662855102
 C        -6.9396051922       -0.9763291526       -0.0326197648
 C        -1.8174853974        1.7626102351       -4.7874946853
 C        -3.4159318857        3.2535733508       -6.1987484267
 H        -3.2320962433        1.9236249593       -8.7760929667
 H        -1.8437667073        0.7623622877       -8.8264884964
 H        -1.5430485273        2.2914564966       -7.9096502394
 H        -3.4066005707       -0.2883591505       -3.6597086905
 H        -4.1041741477       -0.8029947582       -5.1890556579
 H        -5.6163859354       -1.6800461783       -3.9447194670
 H        -6.4628803347       -0.0719144157       -4.0782863482
 H        -7.3881713003        1.8189482156       -3.3551133336
 H        -6.4305883484        2.6095644345       -2.1286786709
 H        -8.0536220035        4.1603244670       -3.0829973187
 H        -8.3852706615        3.9969230237       -1.3363238895
 H       -12.4358034163        1.9661616390       -1.5867584381
 H       -13.4260091719        2.7598272107       -0.3730228480
 H       -10.6106156143        2.2028775535        0.3271441556
 H       -11.6626729617        0.8019945962        0.1693103859
 H        -9.4550620017        2.4111443760        5.1060474550
 H       -11.0270517418        2.7308626482        5.7706689574
 H        -8.8162869100        4.6565593162        4.8932491461
 H        -9.3638148025        4.5835261428        6.5014500695
 H       -12.8731491402        8.7624445942        4.4888956789
 H       -13.3239339335        7.2730152966        5.4843583148
 H       -15.2637092452        7.4779085752        4.3672199403
 H       -14.4913732330        6.4326672333        3.1190639357
 H       -16.2469375536        7.7379625724       -1.3482337301
 H       -15.2536811561        6.3941231762       -1.4901526557
 H       -14.4593781312        7.7597439140       -1.1475779332
 H       -17.9285027417        8.1967969144        3.1155212073
 H       -17.1162335118        6.7162814866        3.2318466777
 H       -18.2132416306        7.0173956255        1.8581911703
 H       -17.2244329331        9.3447132509        0.0837873454
 H       -15.6437572920        9.7707577758        0.3660110079
 H       -16.8301397166       10.1568966974        1.6031076763
 H       -10.2707523702        9.0096035017        5.1560869895
 H        -9.1771759595        7.9894423605        5.8819039061
 H       -10.9337755339        8.1728748078        6.5355321434
 H        -9.3740192751        6.1737377922        2.7581580377
 H        -8.4142929912        6.5080760766        4.1853680081
 H        -9.1223079293        7.8412481322        3.2558144984
 H       -12.8853413526        0.1631416486        3.1473185181
 H       -13.0715074609        1.4997695558        4.3563623886
 H       -11.8725019178        0.2073089105        4.5592778562
 H        -9.3223812459        1.5427535939        2.1662509251
 H       -10.3265513497        0.0777128046        2.1634647070
 H        -9.7577010172        0.4789552692        3.6945085831
 H       -11.4582148957        5.9889100263       -2.1907205114
 H       -10.5578655923        5.8501006791       -3.7382000235
 H        -9.8421253223        5.8287620860       -2.1884292857
 H       -13.1312021824        3.9963292747       -3.5405990274
 H       -12.0416319744        2.6378793271       -4.0806354900
 H       -11.8003589800        4.2488505348       -4.6260791109
 H        -7.6480668924       -1.9363491252       -2.7135876017
 H        -8.3322132844       -0.2928038868       -3.1470820380
 H        -9.1065231616       -1.2721972105       -1.8434978162
 H        -7.8382659748       -0.7832763713        0.4971094574
 H        -6.0745570697       -0.5856418034        0.4744234431
 H        -7.0000545428       -2.0478501459       -0.1826526944
 H        -1.0037877123        2.3690030968       -5.2066400265
 H        -1.4538768440        0.7228262580       -4.7976062997
 H        -1.9518883320        2.1370812313       -3.7675018135
 H        -3.7460537262        3.9058731864       -5.4341022098
 H        -4.2209349356        3.3157148808       -6.9941083683
 H        -2.4970631396        3.6335822078       -6.6771136158
 Na      -12.9946382458        5.0820074167        1.3993154696
