117

 C        -1.8169514089        1.3678430286       -8.1306591018
 C        -2.6345912368        0.7328878344       -7.0014185622
 O        -2.8573854372       -0.4424590026       -6.9111408480
 C        -3.0988785207        1.7029927226       -5.7470573435
 C        -4.2992393670        1.1444265746       -4.9583675257
 O        -5.2428939875        1.8614779464       -4.8431611120
 C        -4.2403552675       -0.1670367052       -4.1488683466
 C        -5.5883728023       -0.6118881676       -3.5847659519
 C        -5.7774431774       -0.2704155138       -2.0640241530
 O        -4.8765070852       -0.0214368683       -1.3020135668
 C        -7.2447930015       -0.2782221659       -1.4916913635
 C        -7.6845817823        1.2922506337       -1.2500550720
 O        -8.2570191713        1.6306862958       -0.2203073031
 C        -7.5478335804        2.3053515404       -2.3529781804
 C        -8.6432861441        3.3685861541       -2.2978951210
 C       -10.0053346708        2.8801639113       -2.8325554873
 O       -10.1055859415        1.7825020603       -3.3584239687
 C       -11.2713342936        3.8739259707       -2.7692987736
 C       -11.7898390705        3.8204582556       -1.3026547641
 O       -12.1166676125        4.8131138521       -0.6512643241
 C       -11.9478987573        2.4259337628       -0.7904021577
 C       -11.1710455251        2.0143282135        0.5178584287
 C       -12.1088193014        2.1369808544        1.7543083862
 O       -13.2190769402        2.5710010175        1.7708773237
 C       -11.3406972385        1.8129031695        3.0808074586
 C       -10.9288251790        3.1724422003        3.7336928460
 O       -11.3293401142        4.2380075982        3.2461508098
 C       -10.2104163688        3.2531756330        5.0409692580
 C        -9.5987881968        4.6517463279        5.3186339230
 C       -10.7079917300        5.6492139740        5.4252059243
 O       -11.6494734949        5.4643271042        6.1588969680
 C       -10.5525084676        7.0215756330        4.6570929869
 C       -11.8376624346        7.1750700033        3.7250153729
 O       -11.6574316988        6.9117388081        2.5592174299
 C       -13.1142498502        7.8747873616        4.2806524432
 C       -14.4998603132        7.5204470664        3.5259973485
 C       -14.8610249792        8.5954831623        2.5364035305
 O       -14.2548428388        9.6350217466        2.5010283467
 C       -16.1276935103        8.1725216339        1.5933622393
 C       -15.5623055927        7.1512695063        0.5324816645
 O       -15.2331470358        6.0371818673        0.9204725532
 C       -15.2611901574        7.5252933677       -0.9225500790
 C       -17.1661927064        7.4433888279        2.5550714426
 C       -16.5943148850        9.4194040536        0.9315832237
 C       -10.6196120549        8.1103665513        5.7930857870
 C        -9.3034411193        7.1726912274        3.8072791023
 C       -12.2881866813        1.1443575426        4.1175473931
 C       -10.0928967832        0.8935608700        2.9986482226
 C       -10.8049452401        5.2807746864       -3.2904391016
 C       -12.3023504249        3.3663638575       -3.7620730965
 C        -8.3895864972       -0.8605106443       -2.4532620527
 C        -7.1064537582       -0.9084011712       -0.1379707786
 C        -1.9006367719        1.7756695300       -4.7589332082
 C        -3.4194913292        3.1486506336       -6.3014380520
 H        -2.2717394433        2.2454697500       -8.4184862286
 H        -1.8137877137        0.6848146170       -8.9755723777
 H        -0.8840477690        1.4790615504       -7.6301519930
 H        -3.4700108912       -0.0161330250       -3.3645070423
 H        -3.8950141637       -0.9405936666       -4.8830773124
 H        -5.5451774886       -1.6987700136       -3.6458606709
 H        -6.4777017366       -0.2526472756       -4.0922675876
 H        -7.4202752272        1.8245305610       -3.3264914938
 H        -6.5461413799        2.7010353911       -2.0661633062
 H        -8.3642699883        4.2458927050       -2.8354216185
 H        -8.7998576826        3.6443423068       -1.2400608556
 H       -11.7408929813        1.7162246286       -1.5873381919
 H       -13.0334622690        2.2926917387       -0.5300398251
 H       -10.4171580781        2.7673071680        0.6964094833
 H       -10.7033016203        0.9959205045        0.4167824129
 H        -9.3860722952        2.5724794312        5.1729464896
 H       -10.8016043461        2.9999626865        6.0129427953
 H        -8.9266983455        5.0119282974        4.5412021015
 H        -8.9612542186        4.6467858595        6.2506277508
 H       -12.9708848986        8.9086262272        4.1427548574
 H       -13.1138400146        7.6042897459        5.3314314829
 H       -15.3337062342        7.4221855871        4.2255983847
 H       -14.4865523583        6.6132347445        2.8991007997
 H       -16.2082040028        7.4506496233       -1.5834735881
 H       -14.5685485709        6.8259770159       -1.3905038224
 H       -14.7169583684        8.4933932624       -1.0113574678
 H       -17.2265792450        7.8285261155        3.5349108094
 H       -17.0949970393        6.3768394805        2.7427218231
 H       -18.1625687521        7.5385439662        2.0917665611
 H       -17.5268453457        9.3458001290        0.4547891665
 H       -15.9184087364        9.7687563512        0.1818482009
 H       -16.5769625139       10.3592536628        1.5660974122
 H       -10.3225680135        9.0581394715        5.4829234941
 H        -9.9483279318        7.8798288479        6.5882291303
 H       -11.6182548925        8.2528697642        6.3507104534
 H        -9.2252271769        6.4374041773        3.0152316676
 H        -8.4341663564        7.0472860265        4.5347194629
 H        -9.2660834898        8.1367184699        3.3902866203
 H       -12.3534187445        0.0178237283        4.1175154509
 H       -13.2674499967        1.5260841185        3.9554345714
 H       -12.0613201207        1.4533400114        5.1015938303
 H        -9.3514154302        1.3282938976        2.2283653069
 H       -10.4640763169       -0.0322756921        2.5770961279
 H        -9.6861810741        0.7829276267        3.9753884508
 H       -11.6077200638        5.8709248159       -3.7452531067
 H       -10.0335399011        5.0103147482       -4.0837758231
 H       -10.2750702319        5.8748911411       -2.4872432873
 H       -13.1932867040        4.0592903433       -3.9720150966
 H       -12.7653563109        2.4586861502       -3.4024931255
 H       -11.7814400241        3.2086696096       -4.6849076003
 H        -8.2346297925       -1.8789542746       -2.6838317252
 H        -8.4603153996       -0.2397930783       -3.3317447314
 H        -9.3213623339       -0.7636305865       -1.9150550447
 H        -8.0290435794       -1.2624340384        0.3213128160
 H        -6.3887386848       -0.2986767644        0.4625493917
 H        -6.5851998353       -1.8504580924       -0.3682873561
 H        -1.0278472364        2.1294308556       -5.2676662425
 H        -1.7630210334        0.7660086361       -4.4085534425
 H        -2.0202252890        2.3725783848       -3.8289756977
 H        -3.7391261423        3.7378695638       -5.4876305598
 H        -4.3672585606        3.1363428107       -6.8861714083
 H        -2.6184252550        3.7038084021       -6.7535373989
 Na      -12.9846264023        5.0497291975        1.5661478192
