117

 C        -1.4370403294        0.6392845261       -7.4254369248
 C        -2.7051997528        0.3499497898       -6.6412462337
 O        -3.3896695753       -0.6261296210       -6.7750970816
 C        -3.0190831667        1.5115778719       -5.6218438048
 C        -4.3710960600        1.1499965705       -4.8676459581
 O        -5.4094456275        1.7948704758       -5.0565647983
 C        -4.3101143701       -0.1354582902       -3.9784518972
 C        -5.7125990054       -0.5320514040       -3.5896257441
 C        -6.0013482479       -0.2852590001       -2.0998152462
 O        -5.0953285969       -0.0012673931       -1.3111746340
 C        -7.4822152810       -0.2478643145       -1.5681493639
 C        -7.8480995503        1.2287952001       -1.3498260701
 O        -8.2867250305        1.6898202258       -0.2906627193
 C        -7.6805726823        2.2181023356       -2.5895871376
 C        -8.7992509861        3.2327224409       -2.6149147900
 C       -10.0198518256        2.6935912490       -3.3087054759
 O       -10.0204951934        1.6098497675       -3.8632914747
 C       -11.3979841023        3.4733901310       -2.9948085622
 C       -11.6541456429        3.4829572359       -1.4866948582
 O       -11.8982859548        4.4955088031       -0.8692017840
 C       -11.7099331810        2.0586010532       -0.7867526787
 C       -11.0782103246        1.9576193173        0.6178039524
 C       -12.0125102155        2.1811642929        1.7820228751
 O       -13.1622973075        2.6276000485        1.5481473948
 C       -11.3961197151        1.9608341625        3.2347953454
 C       -10.8614818498        3.4246667796        3.6667273142
 O       -11.2848790515        4.4096027585        3.1443829792
 C       -10.0163823344        3.6545348343        4.8650958007
 C        -9.5321073549        5.0982602355        5.0268475739
 C       -10.6210384925        6.0390701482        5.4027372848
 O       -11.4947628298        5.7690479725        6.2214847784
 C       -10.6969155623        7.5035538411        4.7108623527
 C       -12.0788241107        7.4600683787        3.9550958021
 O       -12.1613796197        7.1596087059        2.7761960753
 C       -13.3374166966        7.8562625266        4.7472506952
 C       -14.6245133250        7.5832378806        3.8892481182
 C       -14.9011054599        8.5833105974        2.8356666461
 O       -14.4137258204        9.6895257475        2.8641114512
 C       -15.8077341361        8.0584687073        1.5783769923
 C       -14.7958788325        7.3269582407        0.5404902804
 O       -14.2420184157        6.3044466975        0.8457937151
 C       -14.6920456939        7.8479956404       -0.9026328677
 C       -16.9650520293        7.0384161516        2.0107202981
 C       -16.4299760811        9.3250208263        0.9761326418
 C       -10.6106717355        8.5805164788        5.8905998841
 C        -9.6154574616        7.8465191216        3.7181360215
 C       -12.4657056504        1.5448358549        4.3109172079
 C       -10.1617750624        0.9928651889        3.2757232257
 C       -11.2982681993        4.8848527414       -3.5107426583
 C       -12.5042974969        2.6409008843       -3.6096771176
 C        -8.5056648871       -0.8394456365       -2.5945069978
 C        -7.7378797543       -1.0505077739       -0.2617842055
 C        -1.9764111993        1.5585970293       -4.4828151184
 C        -3.1761703952        2.8674543526       -6.2693070332
 H        -1.8775128537        1.0836529636       -8.3048305629
 H        -0.9507743118       -0.3645966378       -7.6094465595
 H        -0.8666998749        1.3554608431       -6.9200851961
 H        -3.7512628134       -0.0018646106       -3.0270979248
 H        -3.8550105373       -0.9808503952       -4.4822281311
 H        -5.7276958280       -1.6122823148       -3.7320128346
 H        -6.5371550171       -0.0657930541       -4.1384672551
 H        -7.5309733015        1.7049136843       -3.5533791286
 H        -6.7322175291        2.7495390134       -2.4401863677
 H        -8.4373990713        4.1736169531       -3.1140770895
 H        -9.1032875654        3.4884145388       -1.6171787809
 H       -11.2538810421        1.2630623084       -1.3592908551
 H       -12.7280716933        1.7462881596       -0.6514285359
 H       -10.2364254684        2.6839920394        0.6607498620
 H       -10.7450431208        0.9349988663        0.6640983800
 H        -9.0844867951        3.0167450938        4.8988862836
 H       -10.4266367346        3.3179199441        5.7728647918
 H        -9.0774752933        5.4729117670        4.0874659089
 H        -8.8030846826        5.1866004352        5.8180553194
 H       -13.2307476748        8.9137364229        5.0985888685
 H       -13.4202442201        7.1831850019        5.5813665741
 H       -15.4568238445        7.3829826244        4.5795525655
 H       -14.5824725413        6.6225106584        3.4052480675
 H       -15.6861468228        7.7824583924       -1.2817716977
 H       -14.0112832790        7.1357134492       -1.4246251078
 H       -14.4334139147        8.9160347148       -0.8663975061
 H       -17.8838609544        7.5050565726        2.4367236919
 H       -16.5355965774        6.2271100267        2.7209712149
 H       -17.3530157617        6.4278774743        1.1937877656
 H       -17.4157192185        9.1875559474        0.5152078126
 H       -15.8276856562        9.7741852115        0.2241971414
 H       -16.6123120360       10.0958771907        1.7253594757
 H       -10.2916523620        9.6046514222        5.5959982732
 H        -9.8830317335        8.1925581983        6.6281365316
 H       -11.5005264449        8.6561208420        6.5015267216
 H        -9.6855805173        7.2262100867        2.8221431489
 H        -8.6851479965        7.7869651371        4.1835933231
 H        -9.7094880546        8.8962917129        3.3946432324
 H       -12.8798633528        0.5392174385        4.1321525495
 H       -13.3502780630        2.2000868584        4.3754777454
 H       -11.9977727639        1.5575421362        5.3168041480
 H        -9.3868919017        1.2935916280        2.5844126639
 H       -10.6184458820       -0.0067342769        3.0643459811
 H        -9.7466542528        1.0506211112        4.3014262184
 H       -12.2699613176        5.3694006073       -3.2929245096
 H       -11.3023684001        4.9431949699       -4.5553110863
 H       -10.4196602692        5.2784207508       -3.0146976072
 H       -13.5078975928        2.9668532333       -3.4421927870
 H       -12.4603351180        1.5782037311       -3.3457548115
 H       -12.3572839058        2.6778025942       -4.7426008084
 H        -7.9705198228       -1.7479279496       -2.9924560988
 H        -8.7708560866       -0.2349690629       -3.4637656377
 H        -9.3887293204       -1.1241067902       -2.1403482382
 H        -8.6226277993       -0.5900852611        0.2324728009
 H        -6.9360942783       -0.8748199664        0.4808193529
 H        -7.7410396319       -2.1255974617       -0.4334689645
 H        -1.1000962239        2.0202413889       -4.9221909825
 H        -1.6679405025        0.6705136653       -3.9565909865
 H        -2.3776855501        2.2680450748       -3.7769303792
 H        -2.9407537696        3.7158761088       -5.5625501579
 H        -4.0625743266        2.9319514317       -6.8391648858
 H        -2.4058996736        2.9787472045       -7.0363520969
 Na      -12.5211630257        5.1705621847        1.4281578714
