117

 C        -1.3383920940        0.5417259263       -7.3071801630
 C        -2.6978448324        0.3103208674       -6.6408242883
 O        -3.4023386934       -0.6898009991       -6.7436926787
 C        -3.0540703210        1.4945084872       -5.5860560378
 C        -4.4213073169        1.0986035232       -4.9028878292
 O        -5.3593867831        1.8178213469       -4.9984355672
 C        -4.3593489841       -0.0843416115       -3.9138435471
 C        -5.7635217840       -0.6914213223       -3.5906275220
 C        -6.1144406258       -0.2601929228       -2.1090213961
 O        -5.2233835633       -0.0303792748       -1.3718219381
 C        -7.5549334234       -0.2383688831       -1.6035476960
 C        -7.9073165278        1.2860105143       -1.4053110347
 O        -8.3793930426        1.6307161572       -0.3389424471
 C        -7.6138160419        2.2005262502       -2.5461940293
 C        -8.6883845538        3.2441341927       -2.7077241295
 C       -10.0691969685        2.6237927584       -3.2525676716
 O       -10.0707907409        1.6378480695       -3.9873614494
 C       -11.4206622962        3.3575471163       -2.9656394140
 C       -11.6472050562        3.3912833834       -1.4011237301
 O       -11.7426852125        4.4683044270       -0.8179458055
 C       -11.7394746786        2.0273886848       -0.8109851230
 C       -11.0862423814        1.8009989645        0.5665982557
 C       -12.0019324061        2.2222349740        1.7844567306
 O       -13.1351337207        2.6554713227        1.6425198095
 C       -11.3647485781        2.1178070719        3.2256542934
 C       -10.8828986283        3.4597033963        3.7200539557
 O       -11.1833627673        4.4975845463        3.0750596315
 C        -9.8705218235        3.5694516588        4.8853545601
 C        -9.4648516439        5.0915961833        4.9655207975
 C       -10.6806300538        6.1032015401        5.3575598716
 O       -11.3668075759        5.8518038428        6.2950131370
 C       -10.7548590220        7.5295898073        4.6694536969
 C       -12.1891305077        7.6264366745        3.9397251767
 O       -12.2740752046        7.4102095022        2.7451951330
 C       -13.4120084965        7.7962039141        4.8126613784
 C       -14.6754710495        7.4911473062        4.0694596276
 C       -14.8744304958        8.4975675071        2.8262420063
 O       -14.5689147023        9.6774507817        2.8438897576
 C       -15.6411819472        8.0851288342        1.5548968691
 C       -14.7696020678        7.3821835452        0.5737629032
 O       -14.3368217867        6.2582644376        0.8519561389
 C       -14.6028788186        7.9471750347       -0.8808601070
 C       -16.6976290846        7.0266818575        1.9136359922
 C       -16.3616430212        9.3206419325        0.9183640881
 C       -10.7198648162        8.5245970355        5.8721386433
 C        -9.6411495863        7.7400542387        3.6624208357
 C       -12.4322738629        1.6899833153        4.2860484157
 C       -10.1959398039        1.0895583468        3.4054134619
 C       -11.4225900769        4.8390457295       -3.5944444182
 C       -12.5564540564        2.5104532733       -3.5687934885
 C        -8.5884049337       -0.8438458587       -2.5994832412
 C        -7.6799264035       -0.9487166453       -0.2433615064
 C        -1.9018314823        1.5045902685       -4.5376604468
 C        -3.1589679745        2.8500940464       -6.2332370271
 H        -1.6388496725        0.9886967625       -8.2688265433
 H        -0.8848786893       -0.4697990143       -7.3386848096
 H        -0.7669699781        1.3200362544       -6.7217371642
 H        -3.9961021159        0.3166950415       -2.9648952763
 H        -3.6972905580       -0.8893164029       -4.1426224434
 H        -5.6165291380       -1.7656143706       -3.6821308786
 H        -6.6110759662       -0.3474770252       -4.2298132052
 H        -7.5968764816        1.5697777526       -3.4164744790
 H        -6.5615264019        2.5175218000       -2.4639767535
 H        -8.3697700314        4.0501129235       -3.4686198040
 H        -8.8728224998        3.7296391050       -1.7699778584
 H       -11.2834382759        1.3607557162       -1.4596393400
 H       -12.7778357080        1.6721268412       -0.7527956747
 H       -10.2428207479        2.4714130275        0.5551644314
 H       -10.7648075096        0.7483124177        0.5831229374
 H        -9.0220675597        2.9715708703        4.7839868195
 H       -10.1549613493        3.2847888551        5.8826014044
 H        -9.0651668442        5.4239239594        4.0466007821
 H        -8.7405179307        5.2491901878        5.7638176893
 H       -13.4457861884        8.8924743269        5.1107820865
 H       -13.3649619769        7.1550541857        5.7384703628
 H       -15.4628632675        7.4162850452        4.8522196050
 H       -14.7615796029        6.4897397080        3.6745090198
 H       -15.6184497305        8.1003526472       -1.3016737730
 H       -14.0008111789        7.2828562399       -1.3980407127
 H       -14.2420332264        8.9272234962       -0.6753347755
 H       -17.4210868431        7.4411683222        2.6141185080
 H       -16.3400390723        5.9948287594        2.2197402118
 H       -17.3929832607        6.8364320791        1.0249654484
 H       -17.2521734122        9.0276959231        0.4139970020
 H       -15.7685519337        9.8146775275        0.1891733897
 H       -16.7499393584       10.0648794942        1.6969074852
 H       -10.6054600969        9.5258089057        5.5540752567
 H        -9.8369722883        8.2899591315        6.4698940998
 H       -11.6050443051        8.4905314644        6.6888228731
 H        -9.8099054972        7.1402247720        2.7964025328
 H        -8.6728673266        7.4911134359        4.1660153674
 H        -9.5627825150        8.7363099501        3.4029070503
 H       -12.6252683094        0.5433442766        4.1428620804
 H       -13.4346407273        2.1007578779        4.0673365752
 H       -12.1890488873        1.9175811737        5.3384208561
 H        -9.1996755449        1.5777141479        3.0924290773
 H       -10.4591888757        0.1573989233        2.9064685727
 H       -10.1688992973        0.8923309010        4.4573322754
 H       -12.3975018214        5.1882484573       -3.7197436598
 H       -11.0580657697        4.7499622735       -4.6242343540
 H       -10.7440584073        5.4253540052       -2.9979226490
 H       -13.5274995541        3.0920546785       -3.4943741681
 H       -12.7189900739        1.5449397784       -3.1553714605
 H       -12.4366438615        2.3140020052       -4.6068634221
 H        -8.0957466314       -1.7860186390       -2.9186980432
 H        -8.7384547376       -0.2671889587       -3.5564260469
 H        -9.5890268465       -1.0936017704       -2.2133597980
 H        -8.6790675777       -0.7912219857        0.1638389128
 H        -7.0240608239       -0.5025721159        0.5354633578
 H        -7.3325705638       -1.9571885894       -0.3333542640
 H        -1.0382739235        1.8969948331       -4.9989423569
 H        -1.6234464300        0.5829290159       -4.1010501014
 H        -2.1786033632        2.2478279051       -3.7614547884
 H        -2.9479206228        3.6361936314       -5.5320161047
 H        -4.0232813822        2.9977178578       -6.9329164632
 H        -2.3251592215        2.8872935998       -6.9605093190
 Na      -12.4560135401        5.2753874774        1.3877985889
