117

 C        -5.0803030984        0.7030277201       10.6734641234
 C        -4.6846633864        1.9906334723        9.6857405538
 O        -5.2426840508        3.0726081453        9.8056633676
 C        -3.8120416814        1.6692926088        8.4378648604
 C        -4.7773711618        1.0816046291        7.3342213342
 O        -4.5795520631       -0.0522627887        6.9966757028
 C        -5.6393540091        2.1294926595        6.5435073419
 C        -6.5855942230        1.4123038698        5.6540585617
 C        -7.5691441687        2.2949681932        4.9132995277
 O        -7.9342578965        3.2869455610        5.5294420353
 C        -8.3934311289        1.7729512781        3.6767008392
 C        -9.6465483741        2.7529177032        3.5547364887
 O       -10.6359539448        2.3799842594        4.0482869391
 C        -9.4298661228        4.0860033921        2.9135256168
 C       -10.6381915041        5.0474899547        2.9070817798
 C       -11.1603752730        5.3650335030        1.5335818406
 O       -10.6073188598        5.0326983142        0.5555021972
 C       -12.5488412986        6.1622393793        1.4206825050
 C       -13.2796351772        5.6924745741        0.1564912529
 O       -12.7337429093        5.9397690396       -0.9186267531
 C       -14.6601855946        4.9822862312        0.0712163687
 C       -14.5641466206        3.7328898318       -0.8385264458
 C       -13.2359237843        2.8920271519       -0.5934033642
 O       -12.5012860588        3.0770893384        0.3573891669
 C       -12.9160833364        1.7872964105       -1.7359735513
 C       -12.2141280083        2.5334616716       -2.9071428258
 O       -11.6231098077        3.6010469129       -2.7252846185
 C       -12.4857579578        2.0512632212       -4.3505235968
 C       -11.4885542813        2.6274862820       -5.2750473288
 C       -12.2662799561        2.6182468855       -6.6376702952
 O       -13.1352317269        1.7947117742       -6.8265709172
 C       -11.6398563622        3.4320889374       -7.9140153042
 C       -10.8094863276        4.6425291284       -7.4436100640
 O        -9.6768234077        4.4094285502       -7.0332865429
 C       -11.4036254020        5.9743355957       -7.1838318889
 C       -10.4173498173        6.8559627829       -6.4782130321
 C        -9.8944097124        6.2810621574       -5.0601209372
 O       -10.6609360396        5.6846461957       -4.4093836181
 C        -8.3711972473        6.4353319139       -4.4903044849
 C        -8.1939435263        5.1232139478       -3.5338021398
 O        -8.7160227464        4.9328957871       -2.4378864742
 C        -7.2170484332        4.0707842665       -3.9964742596
 C        -7.3538098588        6.5133151100       -5.5612854919
 C        -8.3485984802        7.6272453065       -3.4253452182
 C       -10.5691187360        2.4061675881       -8.4253004461
 C       -12.6488773324        3.7422825312       -8.9381237038
 C       -11.8765001932        0.8531239364       -1.1598411054
 C       -14.1650575059        1.0455633159       -2.0942799156
 C       -13.5658142219        5.7290473348        2.5850917713
 C       -12.2524730039        7.6717253167        1.3666473037
 C        -7.4067093042        1.8062074414        2.4491236754
 C        -9.0054077137        0.4142693556        3.9610063561
 C        -3.2416369496        3.0472330309        7.9155275268
 C        -2.6895455056        0.6652519635        8.7339522903
 H        -4.9823064730       -0.2121584647       10.1529070478
 H        -6.1273676868        0.7752724793       10.8756395108
 H        -4.5549197992        0.4237791042       11.5772496064
 H        -4.9464093197        2.7159522734        5.9743238056
 H        -6.2049448318        2.7154286849        7.2529724710
 H        -7.1228674799        0.6893709067        6.2602025954
 H        -6.0300905173        0.7540798838        4.9174507881
 H        -8.9430546731        3.9224831928        1.9565639822
 H        -8.6541956710        4.6325833794        3.4606698263
 H       -10.4413212933        6.0107032139        3.3725052553
 H       -11.5425360955        4.6593822240        3.4819182074
 H       -15.3589523674        5.7094780351       -0.3914848534
 H       -15.0680382531        4.7409526951        1.0489919285
 H       -14.4695361173        4.1075250893       -1.8832261708
 H       -15.4256187151        3.0502419476       -0.9680846823
 H       -13.5179617858        2.2123276927       -4.6139281583
 H       -12.4181033349        0.9340862383       -4.3101761004
 H       -10.6195445492        1.9895358955       -5.3554039328
 H       -11.2526430140        3.6130936329       -4.9176729002
 H       -12.2310532394        5.7264045873       -6.4563221128
 H       -11.7809660299        6.5177160769       -8.0636344926
 H       -10.9185488850        7.8228422107       -6.2335880536
 H        -9.6220791952        7.0782680811       -7.1911224130
 H        -6.5944695292        3.7097164219       -3.2482551688
 H        -6.6009806591        4.4222521366       -4.8724934301
 H        -7.6731974913        3.2577026580       -4.4828919489
 H        -7.6242384296        7.5344116727       -6.0200161540
 H        -7.4673168259        5.7338522132       -6.3501173455
 H        -6.3331885009        6.4691819561       -5.2105337350
 H        -8.8291326799        7.2845979075       -2.5525913960
 H        -8.9730471165        8.4152241941       -3.8560682529
 H        -7.3487625686        8.1131793194       -3.2327269742
 H       -11.0803049216        1.5583711312       -8.7402707350
 H        -9.9670527648        2.0146659243       -7.5985216552
 H        -9.9454537750        2.7045124902       -9.3050358645
 H       -13.2731334924        2.8996313400       -9.0324916054
 H       -12.1780552923        3.8698559310       -9.9161170114
 H       -13.1063135570        4.7237214043       -8.7822764531
 H       -12.2091399226        0.3186157596       -0.2354173024
 H       -10.9847424111        1.4064885511       -0.8065872524
 H       -11.4972697764        0.1797749054       -1.9443710668
 H       -14.7831475975        0.9722841122       -1.2640158250
 H       -13.9266584113        0.1098452756       -2.6466549323
 H       -14.8073711393        1.5008240828       -2.9301906326
 H       -14.5848275127        6.0452413773        2.4804566448
 H       -13.2943318740        5.9426088109        3.6585276475
 H       -13.7061765196        4.6741617710        2.5266049186
 H       -11.6328172314        7.8127521212        0.4756736517
 H       -11.7059349620        7.9653349978        2.3046918667
 H       -13.1686505301        8.2979552715        1.3440996941
 H        -6.6189616789        1.0572239352        2.5855629815
 H        -6.9849377281        2.8017901693        2.5362225136
 H        -7.7520512959        1.5831575316        1.3960053001
 H        -9.6364320714        0.5070471397        4.7985490053
 H        -8.4014669846       -0.3472030437        4.3681604490
 H        -9.5829901834        0.0381449461        3.1686660783
 H        -4.0221177630        3.7682742656        8.1275186459
 H        -3.0732333139        3.0472979028        6.8599670802
 H        -2.3287754207        3.3949010806        8.4960956873
 H        -3.1027489096       -0.3273379543        8.9525933675
 H        -2.0559256125        1.1214734775        9.5122416844
 H        -1.9869820919        0.5532495979        7.8474240615
 Na      -10.7272540661        5.5222244654       -1.9680783431
