117

 C        -1.2547443781        0.3184170826       -7.3774965094
 C        -2.5861439618        0.3119953056       -6.5410302001
 O        -3.3330148105       -0.6302745354       -6.7403062128
 C        -3.0037000759        1.4734559631       -5.5267939601
 C        -4.4359850509        1.1283331507       -4.7655763546
 O        -5.4271655104        1.8192506613       -4.9600927818
 C        -4.3770052620       -0.0907863651       -3.9197223122
 C        -5.7827367972       -0.7728769260       -3.5436822737
 C        -6.1724452933       -0.3468615217       -2.1080369131
 O        -5.3032181858       -0.0150149931       -1.3135404968
 C        -7.6571004669       -0.3844811049       -1.6304819065
 C        -8.0179818663        1.2669817060       -1.4530430108
 O        -8.4446448449        1.6877757456       -0.4156878261
 C        -7.6466059904        2.2498236447       -2.5770202049
 C        -8.7462578196        3.2609610394       -2.8981446728
 C       -10.0746984746        2.6403206230       -3.3075708688
 O       -10.0225909766        1.7010162938       -4.0144666811
 C       -11.4931947813        3.2927254288       -2.9353904297
 C       -11.6440670575        3.3320925434       -1.3523201924
 O       -11.5526137527        4.3935868371       -0.7174674543
 C       -11.8180290099        1.9769413448       -0.7216106111
 C       -11.1277103767        1.7446629623        0.6987542338
 C       -11.9303538803        2.2603806903        1.8568211284
 O       -13.0039255090        2.7188690316        1.7375949953
 C       -11.3541202526        2.1242301449        3.3234228051
 C       -10.7973708133        3.6103082427        3.6411568202
 O       -11.0907012179        4.6636267922        3.0729328178
 C        -9.8722875873        3.7131197947        4.8271599619
 C        -9.4162384317        5.1903549825        5.0142080854
 C       -10.6126749930        6.1211035649        5.3763988859
 O       -11.3052970896        5.8016223090        6.3282148268
 C       -10.7442394579        7.4732761743        4.6350974205
 C       -12.2400898315        7.6316195702        3.9493612608
 O       -12.3233928637        7.6363893263        2.7344347064
 C       -13.4987825708        7.8097904102        4.8524332821
 C       -14.7446846558        7.5668770267        4.0163435931
 C       -14.8772942949        8.5146218000        2.8102076872
 O       -14.5601063647        9.6343293852        3.0928250369
 C       -15.7412464000        8.0546013898        1.4723941533
 C       -14.7679256683        7.3465679692        0.5163366187
 O       -14.3460387432        6.2074714762        0.7749801093
 C       -14.3505271254        8.0075539410       -0.8753997149
 C       -16.7155335378        6.9459609672        1.8942530740
 C       -16.3499945757        9.3283120029        0.9437644242
 C       -10.7622587566        8.4704262367        5.7779329640
 C        -9.6740148417        7.7350493207        3.5874416000
 C       -12.5555214512        1.7825581609        4.2218118167
 C       -10.1933346075        1.0732073508        3.3903751824
 C       -11.5083701449        4.7011992865       -3.6122346237
 C       -12.6243467241        2.4783863371       -3.6153348689
 C        -8.7040391299       -0.9160821163       -2.6466226476
 C        -7.6079146700       -0.9160607538       -0.2150053784
 C        -1.8771409873        1.4432830780       -4.4980484091
 C        -3.1673221181        2.7996803704       -6.2874490908
 H        -1.5133940884        0.6029259313       -8.4310888715
 H        -1.0116420508       -0.6929133445       -7.2059661707
 H        -0.5017775515        1.0305914271       -6.9203797228
 H        -3.8082341643        0.0949397545       -3.0165069249
 H        -3.7948383586       -0.8611100226       -4.4898225474
 H        -5.7121359580       -1.8681775046       -3.7112677746
 H        -6.6016983087       -0.3400931331       -4.1467073596
 H        -7.2869863213        1.7116288513       -3.4420222357
 H        -6.7463668675        2.7199970105       -2.1810540926
 H        -8.4650061645        3.9064965611       -3.7077875562
 H        -8.8913536779        3.9020743312       -1.9775745259
 H       -11.4920228048        1.1659564207       -1.3906216159
 H       -12.8903595174        1.7753275309       -0.5814088681
 H       -10.1522011309        2.1863531016        0.6586545768
 H       -11.0439943761        0.6445582015        0.8015860135
 H        -9.0147817605        3.1075247679        4.8625711934
 H       -10.3431370837        3.4211455948        5.8015154013
 H        -9.0382293940        5.5829396739        4.0998709819
 H        -8.6590914053        5.2237917864        5.8184404974
 H       -13.5060953270        8.8467745757        5.1919993032
 H       -13.4819815598        7.1071508440        5.7500424598
 H       -15.6010347277        7.6968983238        4.6863189663
 H       -14.9643291309        6.5053095254        3.7408459765
 H       -15.2939840094        8.3359353208       -1.3285599315
 H       -13.8322367119        7.2488994439       -1.4158448292
 H       -13.8439828352        8.9151565428       -0.6363817276
 H       -17.1739248164        7.2137341898        2.8528240185
 H       -16.2929187971        5.9854624603        1.8704978871
 H       -17.6256636786        6.9089269824        1.2623782495
 H       -16.9365172976        9.2188196421        0.0265785806
 H       -15.5117395536       10.0527889055        0.6965412151
 H       -17.0372864977        9.7101884114        1.6669129519
 H       -11.1226833850        9.4281794484        5.3545735296
 H        -9.7329563169        8.6947184618        6.1191672103
 H       -11.3279628269        8.2293321556        6.6215390870
 H        -9.8149669462        7.0786726444        2.7446665734
 H        -8.6782645008        7.5751108478        4.0594105069
 H        -9.6981358016        8.7774758306        3.3062586904
 H       -12.7870026724        0.7277284624        4.2195745568
 H       -13.4400584188        2.2150637616        3.6974729478
 H       -12.5722687967        2.1622925297        5.2668073595
 H        -9.3454115485        1.6856994727        3.1195847888
 H       -10.3655416341        0.2304295266        2.7450397961
 H       -10.0773041924        0.6326606624        4.4010552934
 H       -12.4984906262        4.9804511295       -3.9417987526
 H       -10.9254408862        4.4867351221       -4.5365792267
 H       -10.9935888114        5.4377989309       -3.0203560165
 H       -13.5585351354        3.0422992822       -3.6046586696
 H       -12.8191115677        1.5158838504       -3.1323949687
 H       -12.4596732981        2.1677025663       -4.5985814928
 H        -8.5960332002       -1.9632105727       -2.9129550214
 H        -8.6296080367       -0.3275743315       -3.5767103051
 H        -9.8061605295       -0.7748871807       -2.2657098379
 H        -8.5280993469       -1.0484713868        0.2900648369
 H        -7.0588050231       -0.2697004725        0.4306371791
 H        -6.9881918289       -1.8220141283       -0.2618393696
 H        -0.9458151499        1.8253246775       -4.8959394602
 H        -1.6664347165        0.3983899351       -4.2517589664
 H        -2.0950404230        2.0280783069       -3.6116859683
 H        -3.2642680121        3.4884637020       -5.4879558424
 H        -4.0247022601        2.8133298168       -7.0019613164
 H        -2.3325196915        3.1280775930       -6.9497655232
 Na      -12.3729627357        5.3199145895        1.2934455323
