117

 C        -1.2483732538        0.2396305518       -7.3424259518
 C        -2.6198902354        0.2535227242       -6.5549838448
 O        -3.3760013305       -0.6467615639       -6.7133392982
 C        -2.9932162862        1.4230563585       -5.4713763228
 C        -4.3450532982        1.0253857174       -4.8191750273
 O        -5.3321749442        1.7747674636       -4.9043110498
 C        -4.3623894360       -0.2387890535       -3.9841038509
 C        -5.7869560671       -0.6922370599       -3.5683034172
 C        -6.1922806843       -0.2894739043       -2.1571526561
 O        -5.3700948493       -0.0239294631       -1.2570168894
 C        -7.6938394783       -0.2478849861       -1.6489466999
 C        -8.0111009607        1.2419048853       -1.5204212175
 O        -8.5032153196        1.6623794300       -0.4851424740
 C        -7.7191668702        2.3001882283       -2.6594451524
 C        -8.8056142404        3.3470651038       -2.9128444476
 C       -10.0494480900        2.6053291004       -3.3956239949
 O       -10.0785555406        1.6029267944       -4.0825898501
 C       -11.5038720310        3.2442600594       -2.9360975781
 C       -11.5970831928        3.2660195477       -1.3557852876
 O       -11.3848364632        4.3078715541       -0.7234576156
 C       -11.9255470050        1.9133578328       -0.6202813938
 C       -11.1681390911        1.6976649020        0.7405119781
 C       -11.9350543622        2.2936618053        1.8280186807
 O       -12.9735697922        2.9506968837        1.7029592698
 C       -11.3260291455        2.2630874591        3.2948562666
 C       -10.7471123586        3.6734453148        3.6979581903
 O       -11.0765530426        4.6133072238        3.0335367740
 C        -9.8710455336        3.8184441661        4.8907294852
 C        -9.2840948312        5.2141060761        5.1056176487
 C       -10.5498429728        6.0971757562        5.3846368172
 O       -11.3111778063        5.7348427236        6.2818288390
 C       -10.8370311936        7.5349073148        4.6116529529
 C       -12.2405024880        7.5266378060        3.9202198603
 O       -12.3396723930        7.6923273523        2.7117602427
 C       -13.4759481351        7.7131660982        4.8042885251
 C       -14.7954443134        7.4534841652        4.0308656597
 C       -14.9460688080        8.5379793896        2.9678824964
 O       -14.5738858219        9.6725244742        3.0155808605
 C       -15.7223094675        8.0549589894        1.5398505283
 C       -14.7058333435        7.3343082434        0.4919793328
 O       -14.3055136845        6.2028125265        0.6761456943
 C       -14.1236745229        8.0634801478       -0.7973770229
 C       -16.8416896485        6.9825750838        1.9250370903
 C       -16.3472275387        9.3119227464        0.9775829392
 C       -10.7393892355        8.6350089729        5.7400259938
 C        -9.8180294673        7.7987504907        3.5309644095
 C       -12.5349764026        1.9022663853        4.2274937599
 C       -10.2358628088        1.1411183700        3.4419854162
 C       -11.5327671819        4.6731157896       -3.5386680832
 C       -12.6270602914        2.4215347552       -3.5593366083
 C        -8.7008418117       -0.9481501037       -2.5399608015
 C        -7.7249795197       -0.9547695526       -0.2290630344
 C        -1.8791623794        1.4812321363       -4.4043219230
 C        -3.1326542290        2.7677755242       -6.2865726714
 H        -1.4697573860        0.4756696386       -8.3725864425
 H        -0.8618592887       -0.7522167607       -7.1127359110
 H        -0.6564828844        0.9851327300       -6.9210984538
 H        -3.7162501004       -0.1008303763       -3.0819013483
 H        -3.9231896658       -1.1186050059       -4.5383260471
 H        -5.8052017566       -1.8022535875       -3.5495554322
 H        -6.5535499357       -0.3470681205       -4.2744666102
 H        -7.4271638735        1.8397488062       -3.6299689624
 H        -6.7972805391        2.7368690087       -2.2911026345
 H        -8.5142834298        3.9710911286       -3.7124141270
 H        -9.0343130995        4.0083313689       -2.0419386181
 H       -11.8130955821        0.9628930118       -1.2615136682
 H       -12.9848781884        1.8958147125       -0.3434726406
 H       -10.1567009042        2.1641406207        0.6940297972
 H       -11.0725445278        0.6329475508        0.9227581961
 H        -8.9395122221        3.1408248087        4.8695215666
 H       -10.3265707090        3.4964649085        5.8372819134
 H        -8.8193873804        5.6126269973        4.1583499682
 H        -8.5970752676        5.1840958082        5.9549819173
 H       -13.4385619589        8.7497354100        5.1102140390
 H       -13.3427478536        7.0865722706        5.6679377813
 H       -15.6656837167        7.3454775741        4.6625707989
 H       -14.8572079507        6.4803923283        3.5032952150
 H       -14.9592559082        8.5035000342       -1.3021045476
 H       -13.6088453351        7.1992740679       -1.3239898134
 H       -13.5317895128        8.9219709688       -0.4338098623
 H       -17.2884011209        7.2205288745        2.8826946184
 H       -16.4914790455        5.9774765395        1.8500628365
 H       -17.6598229956        7.0501890518        1.2962839557
 H       -16.5076771065        9.2417007132       -0.1410646791
 H       -15.7295684583       10.2132757197        1.1473283150
 H       -17.3194210607        9.3913864885        1.3737447115
 H       -11.3033250247        9.5509596828        5.4822233552
 H        -9.7022603526        8.9733948726        5.7863463418
 H       -11.0501972721        8.3305183659        6.6746081049
 H        -9.7837988858        6.9867941152        2.7633297665
 H        -8.8803134697        7.8844106679        4.0136758847
 H       -10.0430148030        8.8267355222        3.0829624397
 H       -12.7813956373        0.8973794706        4.2668483792
 H       -13.4293612175        2.4192327621        3.9059004739
 H       -12.3326663641        2.2344999810        5.2434558382
 H        -9.3991891819        1.4640759945        2.9366417742
 H       -10.6431887567        0.1928336065        3.0823279401
 H       -10.0341211145        0.9050806481        4.5092537363
 H       -12.6336739093        4.9896706416       -3.6732339161
 H       -11.0152838387        4.6428978727       -4.4908853084
 H       -11.0186430398        5.3635348212       -2.8435966355
 H       -13.5737242048        2.8299319532       -3.5660610010
 H       -12.6401962948        1.4124041930       -3.1271678216
 H       -12.4024898498        2.1135867600       -4.6058985809
 H        -8.5567860922       -2.0428310510       -2.4545456234
 H        -8.7125265300       -0.6561550622       -3.5819988536
 H        -9.6990207826       -0.7908007872       -2.1339509257
 H        -8.7099193806       -1.2157814848        0.1488202990
 H        -7.2624781968       -0.4589893709        0.5809398650
 H        -7.1573248820       -1.8663972000       -0.4213713238
 H        -0.9322396104        1.9248809497       -4.7974711976
 H        -1.6078446467        0.4428584337       -4.0976595867
 H        -2.1566952899        2.1045406472       -3.5738964836
 H        -3.5054837820        3.4781215211       -5.5151296369
 H        -3.8354377816        2.6619757676       -7.0624721873
 H        -2.2842111530        3.1551310641       -6.8306807627
 Na      -12.3125656555        5.3262448547        1.2048288820
