117

 C        -1.0537911460        0.0380159155       -7.0555021376
 C        -2.4565970677       -0.0576879991       -6.3577617402
 O        -3.2398178705       -0.8994693965       -6.7346466698
 C        -2.8463837745        1.0300345339       -5.2607182255
 C        -4.2745540504        0.5907080666       -4.5468430213
 O        -5.1050546479        1.4708361260       -4.3617656804
 C        -4.4783921186       -0.8081788031       -3.9902003574
 C        -5.9192940971       -0.9996874923       -3.5377610910
 C        -6.1756944224       -0.2490390348       -2.2397913155
 O        -5.2126310813        0.1725635981       -1.5879837147
 C        -7.6845584932       -0.1800520369       -1.7656511487
 C        -8.1973819092        1.2496510461       -1.7456962604
 O        -8.7961344499        1.6547285758       -0.7817736279
 C        -7.9671925305        2.1397571990       -2.9721647852
 C        -9.1209766924        3.1423974863       -3.1031686422
 C       -10.5078235761        2.4184306934       -3.2896592121
 O       -10.6112795547        1.3037422929       -3.7841564905
 C       -11.8072649864        3.1237676096       -2.7682448256
 C       -11.6613752709        3.0611126745       -1.1408016968
 O       -10.9531219590        3.9463767339       -0.6080560923
 C       -12.2656607361        1.9370586067       -0.3143245042
 C       -11.5781442156        1.7718526305        0.9861141682
 C       -12.0575885294        2.7286748777        2.0091700793
 O       -12.9708664241        3.5069613948        1.8521556534
 C       -11.3445049276        2.8089742353        3.4134005552
 C       -10.2938463000        4.0288446176        3.4059410378
 O       -10.1613366932        4.6344888039        2.3547958225
 C        -9.4415421550        4.2001193353        4.6902508660
 C        -9.2314055671        5.6667775431        5.0709992275
 C       -10.5618281268        6.3805808648        5.3598767017
 O       -11.3278283976        5.9118704541        6.1775740902
 C       -10.9078349038        7.7249125085        4.4694723963
 C       -12.3148431710        7.3997942829        3.7998235147
 O       -12.3711641345        6.9865008639        2.6473830403
 C       -13.5837546563        7.4180243146        4.6608577587
 C       -14.8379703576        7.1414052106        3.8188738217
 C       -15.1958494570        8.4198548425        2.9159631551
 O       -15.2223895152        9.5605065265        3.2875469918
 C       -15.5479655442        8.0301201302        1.3851628494
 C       -14.3506153534        7.6293658601        0.5498049276
 O       -14.1167452638        6.4662081783        0.2426698736
 C       -13.2863878192        8.6488492126        0.1749797169
 C       -16.6380102327        6.8737337144        1.3523484841
 C       -16.2078152795        9.2327161622        0.6835153968
 C       -10.9140386312        8.9108559710        5.4713027600
 C        -9.8027935853        7.9508745759        3.3607550475
 C       -12.4304133192        2.9939282103        4.4724016897
 C       -10.5314068661        1.4655415351        3.6568878506
 C       -11.8592288659        4.6476955740       -3.2221333007
 C       -13.0385309366        2.3973343904       -3.3470770179
 C        -8.6948593956       -0.9241591384       -2.6780694783
 C        -7.7875266292       -0.6462127435       -0.3231740988
 C        -1.7548482019        1.0937695756       -4.2380332632
 C        -3.1494007405        2.2962094947       -6.0459866594
 H        -1.0247329975       -0.8460885587       -7.6830582703
 H        -0.4556383052        0.0321599589       -6.1406579784
 H        -0.8159002680        0.9258253019       -7.5612363110
 H        -3.9028864039       -1.0293810629       -3.1290504419
 H        -4.2367146216       -1.6658193753       -4.6464090183
 H        -6.0734696561       -2.0838704329       -3.4544826509
 H        -6.6152226149       -0.6858748896       -4.3142880600
 H        -7.9837534547        1.4633460325       -3.8350279478
 H        -6.9991826215        2.6149099928       -2.8772715814
 H        -8.9666167987        3.7211052920       -3.9824043365
 H        -9.2054939743        3.8658763278       -2.2153572657
 H       -12.2412427874        0.9816484774       -0.8608481511
 H       -13.2994987355        2.0760946335       -0.1179134904
 H       -10.5190438410        1.8922110952        0.7659695405
 H       -11.5916545537        0.7215993202        1.3171531825
 H        -8.4931789704        3.7137336559        4.5576287178
 H        -9.9345455365        3.8090147476        5.5451021530
 H        -8.5453549894        6.2306257864        4.4271624527
 H        -8.7508871708        5.6253192828        6.0362186871
 H       -13.5936247924        8.3853524292        5.1319369456
 H       -13.4833087663        6.6884357931        5.4969465888
 H       -15.5697236268        6.7365620506        4.5080790136
 H       -14.5796061985        6.3819070875        3.0354561189
 H       -13.7099833725        9.2136450906       -0.6163887921
 H       -12.5169327475        7.9522737775       -0.2015951605
 H       -13.0029449325        9.0928856121        1.1342755067
 H       -17.3390754594        7.0431529349        2.2058643009
 H       -16.1019752647        5.9402747690        1.5922311197
 H       -17.0579686131        6.8735984838        0.3712589129
 H       -16.3851334664        8.8909584302       -0.3472446409
 H       -15.4671885903       10.0355214092        0.7494372898
 H       -17.0424823430        9.5740611523        1.1942796047
 H       -11.7965827926        9.5438682898        5.3030719893
 H        -9.9785905678        9.4548727031        5.3897202560
 H       -10.9499811319        8.4883461651        6.5334210933
 H        -9.6537628473        7.0496759567        2.7491866697
 H        -8.9066198708        8.1836670504        3.8457778542
 H       -10.1225568113        8.7986058910        2.6784217010
 H       -12.6609759114        2.1070802121        4.9687113449
 H       -13.3009444612        3.4020432248        3.9885315495
 H       -12.1692387929        3.7376909178        5.2306507842
 H        -9.8489166248        1.2160967647        2.9086962597
 H       -11.1877818278        0.5923885537        3.6438017911
 H        -9.9159525232        1.6091070570        4.5851107484
 H       -12.9636791954        4.9549240804       -3.2556972879
 H       -11.3987283902        4.6985247477       -4.2040580383
 H       -11.3349503020        5.3763543949       -2.5818693415
 H       -13.9320113343        2.9268528853       -3.2117046909
 H       -13.2534438002        1.4287090635       -2.8044142960
 H       -12.9355569173        2.2327831558       -4.4566934817
 H        -8.5175694591       -1.9826956887       -2.6399055896
 H        -8.5620937152       -0.7163810732       -3.7010311098
 H        -9.7373141525       -0.7132216270       -2.4976691148
 H        -8.7789985680       -0.9303828991       -0.0146020486
 H        -7.2737996367        0.0243679816        0.3349052817
 H        -7.3422253437       -1.6579136401       -0.1608994721
 H        -1.0106161945        1.8450275092       -4.5903716134
 H        -1.2952898600        0.0839480992       -4.1050120847
 H        -2.0649765127        1.3546535640       -3.2461321325
 H        -3.4008212710        3.1343881075       -5.3721287997
 H        -3.9826589122        2.2158852536       -6.6819892106
 H        -2.2207436534        2.5772579346       -6.5352982837
 Na      -12.0851179443        5.3694975891        0.9847204871
