117

 C        -1.1003504554        0.0431653843       -6.9300688332
 C        -2.4911202564       -0.1338816763       -6.3071933353
 O        -3.3283044886       -0.9342090776       -6.7533267546
 C        -2.8190050927        0.9138207865       -5.2382275768
 C        -4.1720028670        0.5295735952       -4.5094403149
 O        -5.0227452760        1.3667533087       -4.4498105513
 C        -4.3976528035       -0.9198774205       -4.1042397702
 C        -5.8878057156       -0.9488995553       -3.5760955130
 C        -6.1460334558       -0.1995988067       -2.2192646581
 O        -5.3018495947        0.2870172123       -1.5577078957
 C        -7.6686929801       -0.2537026227       -1.7581588901
 C        -8.2634115360        1.2467321677       -1.7632361681
 O        -8.8552838093        1.7078138603       -0.8079751243
 C        -8.0903615411        2.1543474241       -3.0960617086
 C        -9.2682015472        3.1357214285       -3.1014626861
 C       -10.6033742840        2.4074357422       -3.2523733503
 O       -10.6343342492        1.3014011241       -3.6925059032
 C       -11.8947771137        3.1622922334       -2.7325108117
 C       -11.7380426007        3.1501827502       -1.2432069392
 O       -11.0324873449        3.9408563940       -0.6119985582
 C       -12.2173396330        1.9057646048       -0.4992637094
 C       -11.5333756784        1.8592078257        0.9474914077
 C       -12.0554281820        2.7355822558        2.0351876454
 O       -13.0064936073        3.5421422690        1.8757218989
 C       -11.3771449818        2.8101936951        3.4622897224
 C       -10.2453685781        3.9798020651        3.3597023775
 O       -10.1146836567        4.6506899992        2.3555727197
 C        -9.3630513799        4.2147165695        4.5638253081
 C        -9.1703100706        5.7168531544        5.0465384581
 C       -10.5162752237        6.4440784687        5.3326496121
 O       -11.2638892161        6.0135847124        6.1606782952
 C       -10.9181560052        7.6841284315        4.5252685111
 C       -12.3031579368        7.3870356007        3.8647188555
 O       -12.3775449386        6.9980237998        2.7089103515
 C       -13.6049713093        7.4827365490        4.6855059893
 C       -14.7855188949        7.2000391192        3.7830444706
 C       -15.1727224715        8.3483706547        2.8042832276
 O       -15.3715615589        9.3961650683        3.4143140839
 C       -15.5167810231        8.1239817564        1.2521949864
 C       -14.1727907966        7.6533765632        0.4648817724
 O       -14.0405888339        6.4498662914        0.2073778930
 C       -13.1850769129        8.7636610480       -0.0127411178
 C       -16.4535917760        6.8065599895        1.3432080803
 C       -16.2647206457        9.3181518903        0.6056667621
 C       -10.9242052553        8.8722352541        5.5255752588
 C        -9.9967710064        7.9782930302        3.3413586135
 C       -12.3387171473        3.1461857996        4.5619284898
 C       -10.6017266047        1.4295692732        3.7702996905
 C       -11.8220917506        4.6365385728       -3.2526056592
 C       -13.0477754275        2.3715918256       -3.2694139311
 C        -8.6030541229       -1.0620714788       -2.6397856459
 C        -7.7445065917       -0.7892821743       -0.2960872211
 C        -1.7414013658        1.0530054974       -4.1047324693
 C        -3.1774503946        2.2241417125       -5.9613099445
 H        -0.9990524972       -0.8200701753       -7.5560370467
 H        -0.3280365138        0.3786581093       -6.1505649491
 H        -1.2192651974        0.9102678709       -7.6048889073
 H        -3.7749864660       -1.3686524341       -3.3536786611
 H        -4.3264576926       -1.6394382789       -4.8979932155
 H        -6.1467394575       -2.0160066811       -3.4698475429
 H        -6.5990887232       -0.6090361997       -4.3523676453
 H        -8.0417008785        1.5159155221       -3.9958617304
 H        -7.2079890223        2.7358799895       -2.9576077074
 H        -9.1754707844        3.8435690362       -3.9455161419
 H        -9.2667741484        3.7244934738       -2.1582944904
 H       -11.9261854884        0.9727545195       -1.0275341205
 H       -13.2581040432        1.8029399832       -0.4177611910
 H       -10.4545370166        1.9543247599        0.7439865458
 H       -11.5658430280        0.8540852809        1.3295521788
 H        -8.3341042898        3.9306737203        4.3002720284
 H        -9.6995378207        3.6814259499        5.3913518549
 H        -8.5519141505        6.2027717306        4.2830906759
 H        -8.5568384216        5.6968434326        5.9222190067
 H       -13.6809543281        8.4773633950        5.2343930748
 H       -13.6035916644        6.7046644184        5.4948824924
 H       -15.5717360737        7.2312827147        4.5745514281
 H       -14.7458225718        6.1836086021        3.3375111181
 H       -13.8392546173        9.3561334035       -0.5948746334
 H       -12.4771260550        8.2945213335       -0.6252014764
 H       -12.7648920450        9.1153456731        0.9185710915
 H       -17.1138435876        6.8359622934        2.2164227481
 H       -15.6982076195        5.9757021935        1.5787811451
 H       -16.9099820413        6.6668838107        0.3519509654
 H       -16.0786870757        9.2380488885       -0.4482606982
 H       -15.8594494811       10.1665100551        1.0545242543
 H       -17.3678431055        9.3196472212        0.8544916137
 H       -11.7931874753        9.4620751007        5.2792261406
 H       -10.0007501489        9.4176235037        5.3872291564
 H       -10.9311340620        8.5534149337        6.6590498235
 H        -9.9933489511        7.2604801365        2.5351055308
 H        -9.0251729737        8.1263597914        3.7444799202
 H       -10.3363471469        8.9351484241        2.9677690275
 H       -12.5179499025        2.2272484859        5.2250502659
 H       -13.2835005894        3.4963951551        4.1514138132
 H       -11.9998673345        3.9604348358        5.2115719415
 H        -9.9584525507        1.0485449778        2.9554531115
 H       -11.2770349875        0.5758717512        3.8848885016
 H        -9.9297907177        1.6009356490        4.5692180426
 H       -12.8110245432        5.1351224022       -3.2600342214
 H       -11.4510195476        4.5733742374       -4.2696528951
 H       -11.1037643439        5.2289343797       -2.6978334243
 H       -13.9588804382        2.9654075355       -3.1742032850
 H       -13.2962707085        1.4882519102       -2.7264830300
 H       -12.9178252978        2.2081033628       -4.3592076509
 H        -8.3517378023       -2.1510050322       -2.6637552568
 H        -8.6811110786       -0.8105608775       -3.7016498058
 H        -9.5771998265       -0.9225646453       -2.3198367287
 H        -8.7528443513       -1.0891954106        0.0051064589
 H        -7.2127226342       -0.1857083938        0.4543352736
 H        -7.3292933424       -1.7796297162       -0.2210679242
 H        -0.9895938391        1.7414585525       -4.4933917883
 H        -1.2970533415        0.1305008006       -3.7747347946
 H        -2.1724865166        1.4673546514       -3.2145025254
 H        -3.6271607110        2.8999240997       -5.1836628203
 H        -3.9743659380        2.0824928859       -6.6523712746
 H        -2.3105533542        2.7502799816       -6.3141782307
 Na      -12.0939275922        5.4196822665        1.0765833239
