117

 C        -4.9495411769        0.9223759197       10.5753959141
 C        -4.7073966052        2.0031143765        9.5853212127
 O        -5.2494434661        3.0929281177        9.7626436809
 C        -3.7493486521        1.7924606770        8.4291370764
 C        -4.5803125988        1.2394747030        7.2199932688
 O        -4.5458504220        0.0906929275        6.8731952645
 C        -5.6096149463        2.2303674211        6.5793291309
 C        -6.5753002115        1.3935294754        5.6656568179
 C        -7.7139288384        2.2798095305        5.0190694227
 O        -8.1261013139        3.3404029933        5.4606152840
 C        -8.4130039620        1.7814755124        3.7661364493
 C        -9.5726715466        2.8177883988        3.5637282973
 O       -10.6708519770        2.5813101896        4.0337590388
 C        -9.2940635177        4.3054123459        2.9822449305
 C       -10.6663183374        5.0838455381        2.9370757355
 C       -11.2850838249        5.2973793316        1.5119675501
 O       -10.6208935246        5.1205665857        0.4980711519
 C       -12.6657198045        6.0877357435        1.3918215266
 C       -13.2839362255        5.7656493380        0.0225658752
 O       -12.6366587716        6.0766223846       -0.9903466896
 C       -14.5169879378        4.9383548269       -0.0269377885
 C       -14.4835586116        3.7807902013       -0.8959547335
 C       -13.2036752471        2.8401078983       -0.5560459368
 O       -12.7570716502        3.0007669621        0.5508913252
 C       -12.9135173189        1.8094118774       -1.6048079959
 C       -12.3471495666        2.5409678680       -2.9163137189
 O       -11.7276187974        3.5684984607       -2.8070749884
 C       -12.4192833140        1.8364807287       -4.2603744810
 C       -11.5469361216        2.5659906940       -5.2305143252
 C       -12.1684580517        2.5483242083       -6.6844979730
 O       -13.1973569687        1.9940098986       -6.8678644877
 C       -11.5458317955        3.3182744585       -7.8900290875
 C       -10.6565004431        4.5666923360       -7.2777812563
 O        -9.4643533248        4.4434076786       -7.0240141599
 C       -11.3542039381        5.9576143133       -7.0018047912
 C       -10.3463046007        6.8883292273       -6.3048504784
 C        -9.9653287320        6.1486666841       -5.0598097784
 O       -10.8357771713        5.5925779594       -4.4469717527
 C        -8.5046842848        6.2806459006       -4.5034624884
 C        -8.1576854361        5.0411394470       -3.5860667748
 O        -8.6624098194        4.9301358311       -2.4840446233
 C        -7.2647557808        3.8551833179       -4.0030040356
 C        -7.4190278717        6.3922384806       -5.5380063274
 C        -8.5324185581        7.5452569389       -3.5075806595
 C       -10.5777133859        2.3009072731       -8.6056567965
 C       -12.6890402484        3.7623788891       -8.7849440124
 C       -11.8369074996        0.7605251135       -1.0733597820
 C       -14.1507092796        1.1070752997       -2.1022555543
 C       -13.5091506017        5.6667698099        2.6792083119
 C       -12.3316214875        7.6318377540        1.3139618207
 C        -7.5441304302        1.7595755622        2.4368891615
 C        -8.9935480477        0.4006411030        3.9615105349
 C        -3.1642922438        3.1416184112        7.8669716326
 C        -2.6094870298        0.7729947221        8.5297658235
 H        -4.6150036526       -0.0656354193       10.2953117393
 H        -5.8718089245        0.9027467461       11.0020109359
 H        -4.1523071006        1.1445100634       11.2959676169
 H        -5.0950194727        2.8856932960        5.9845097185
 H        -6.1045629359        2.7703096429        7.3355676269
 H        -7.0313612658        0.5444873631        6.2262946778
 H        -6.0366476020        0.8870822394        4.9206344849
 H        -8.8346645179        4.1946228808        2.0316945752
 H        -8.5792049776        4.8669639172        3.5607547548
 H       -10.6789434210        6.0838583157        3.3242443916
 H       -11.4464621817        4.5458144112        3.5779890001
 H       -15.3884918033        5.5320358688       -0.1202264627
 H       -14.5717372450        4.4892323174        1.0302161168
 H       -14.7328913947        4.0720590114       -2.0012862572
 H       -15.3098221653        3.1044165933       -0.7274747251
 H       -13.5047147186        1.8097112922       -4.5730456572
 H       -12.2035774874        0.7462525256       -4.1418066555
 H       -10.5886995565        1.9847668522       -5.2275683841
 H       -11.3756947848        3.6359228910       -4.8587620157
 H       -12.1778062775        5.7350189231       -6.3329164613
 H       -11.6958340762        6.4461318724       -7.9135837021
 H       -10.7458069906        7.8427897451       -6.0407798991
 H        -9.5420714823        7.0800355680       -6.9692131720
 H        -7.1174187881        3.2182873723       -3.1168817679
 H        -6.2809156515        4.0642050358       -4.4325773060
 H        -7.6698477801        3.2306717185       -4.8172329096
 H        -7.5935673064        7.1904563642       -6.1327531570
 H        -7.3651084222        5.4481679151       -6.1527587807
 H        -6.3983161361        6.4801395550       -5.0291074504
 H        -8.9308594416        7.2920532192       -2.5356833519
 H        -9.1300805682        8.2374965832       -3.9719161924
 H        -7.5744168595        8.0213055191       -3.4570024945
 H       -11.1994026952        1.4659434401       -9.0897389338
 H        -9.9904430171        1.7367892039       -7.8687350307
 H        -9.9298967482        2.7068381720       -9.3572283934
 H       -13.5172685531        3.0915071964       -8.5109884321
 H       -12.5115115790        3.6285222583       -9.8953861611
 H       -12.8894695375        4.8211324467       -8.6958893708
 H       -12.2392851849        0.0435237447       -0.3159243104
 H       -10.9975421854        1.1713820788       -0.5267305858
 H       -11.4130760543        0.2770696309       -1.9795826066
 H       -14.7665621099        0.7140353069       -1.2825244902
 H       -13.9273727635        0.4396351995       -2.8783154119
 H       -14.7870325384        1.7422078950       -2.6729571326
 H       -14.5167407827        5.9865424475        2.7910871452
 H       -12.9646427658        6.0603881407        3.6078265547
 H       -13.5608025118        4.6312347609        2.8052851207
 H       -11.9592753284        7.6943381723        0.2708090433
 H       -11.5251020081        7.9426389282        2.0033412296
 H       -13.1763646390        8.2834623549        1.4880526839
 H        -6.6871547755        1.0663415242        2.4964361907
 H        -7.2119982101        2.7733519122        2.2454619113
 H        -8.1002212970        1.3546248023        1.5918350690
 H        -9.6336589337        0.3468025627        4.8466169995
 H        -8.2957898658       -0.3750774348        4.2837703830
 H        -9.5804325727        0.0317041861        3.1193472681
 H        -3.7701989037        3.9862805664        8.2574857680
 H        -3.1870415248        3.1274927303        6.7607798372
 H        -2.1150807305        3.3231119818        8.2576738997
 H        -3.0625561379       -0.2357173037        8.6946869948
 H        -1.8758402148        1.1161450968        9.2950715192
 H        -1.9534591430        0.7533568014        7.6028310752
 Na      -10.6476443770        5.4180874704       -1.8395023768
