117

 C        -0.9798012657       -0.0703982471       -6.9745449065
 C        -2.4351304217       -0.1779413933       -6.2595092385
 O        -3.2090839161       -1.0248439389       -6.6712204439
 C        -2.8938704687        0.8422383364       -5.1538102418
 C        -4.2937735186        0.5383825744       -4.5847915669
 O        -5.2072114911        1.3058115339       -4.5308439815
 C        -4.3638110304       -0.8960770098       -3.8969843173
 C        -5.7259271445       -1.3161561721       -3.3724349443
 C        -6.2431012451       -0.3855846299       -2.2620119032
 O        -5.5170674990        0.4626946188       -1.8644183547
 C        -7.7253491942       -0.3872943258       -1.7157852852
 C        -8.3738083503        1.0616339563       -1.7757922329
 O        -8.9236802415        1.4707665359       -0.7878253508
 C        -8.2133821407        1.8393754266       -3.0509037905
 C        -9.2866013065        2.9078351251       -3.2600036711
 C       -10.7069706932        2.2570297555       -3.2134926505
 O       -10.9020822797        1.1013059231       -3.4512934107
 C       -11.9041926574        3.2262923835       -2.7801818185
 C       -11.8580225094        3.4082700581       -1.1932844851
 O       -11.7171670575        4.5297544260       -0.7281255642
 C       -12.0970931511        2.0788611721       -0.4229886139
 C       -11.4236628264        1.8643545590        0.9850650814
 C       -12.0155412851        2.7580146079        2.1228045353
 O       -13.0936184917        3.3351984687        1.9545775903
 C       -11.2574955163        2.8886557945        3.5238518094
 C       -10.2214046664        4.0771518895        3.3965850205
 O       -10.2425246703        4.8330805555        2.4310127061
 C        -9.1970284957        4.3058757212        4.4973810079
 C        -8.9881764438        5.8381529211        4.6613672712
 C       -10.3301443443        6.3985827788        5.1463247971
 O       -10.9190890653        5.9113135276        6.0691527303
 C       -10.9238249216        7.7600382937        4.4923982558
 C       -12.3538101313        7.4082995330        3.8407346544
 O       -12.3550450674        7.0346715682        2.6898455902
 C       -13.6585641891        7.5544545832        4.5978934688
 C       -14.8434993262        7.0947283411        3.8219856468
 C       -15.2391694156        8.2300628237        2.7627010626
 O       -15.3991804961        9.3466942339        3.2576469274
 C       -15.4456278496        7.9741536010        1.0812355772
 C       -14.0506875654        7.8326382832        0.4452264855
 O       -13.5721449295        6.7078433418        0.3381338985
 C       -13.2571181307        9.0598970708       -0.0334572524
 C       -16.2197773319        6.6564703668        0.8707153788
 C       -16.2070277375        9.1902542712        0.5244905414
 C       -11.0609264389        8.8514585871        5.6799166064
 C        -9.9365334212        8.3385780834        3.4469240879
 C       -12.3506868409        3.5194063675        4.4923458258
 C       -10.6925446697        1.5382475001        3.9569137261
 C       -11.9239445060        4.6103128623       -3.3852739052
 C       -13.2728852100        2.4930893938       -3.0922535596
 C        -8.7237673984       -1.2389848919       -2.5235683318
 C        -7.6399950727       -0.8092053092       -0.2657124332
 C        -1.8360780829        0.7599741980       -3.9607693866
 C        -2.8116043474        2.2956890878       -5.7887453186
 H        -0.7680407436       -1.0690684335       -7.2183422517
 H        -0.3429154327        0.3208632688       -6.1520272265
 H        -0.9250525595        0.4866067224       -7.8367018442
 H        -3.6670050825       -0.9626508700       -3.0741597020
 H        -4.1110265278       -1.8031715999       -4.5200232191
 H        -5.6703992583       -2.3407488870       -2.9845148074
 H        -6.3619278752       -1.4796267119       -4.2348765873
 H        -8.2868677075        1.1329219651       -3.9071441079
 H        -7.2226694338        2.2690204451       -2.9627170334
 H        -9.1751652904        3.2445395453       -4.2425686088
 H        -9.2559362660        3.8049442975       -2.5731214764
 H       -11.9484401010        1.1623992434       -1.0645598400
 H       -13.1424520136        2.0387504457       -0.1716031466
 H       -10.3328671865        1.9936269200        0.8799509190
 H       -11.4168225242        0.7805908400        1.2085042292
 H        -8.2279639760        3.8557280651        4.1472198961
 H        -9.5260825890        3.9062730750        5.4169153443
 H        -8.4971405899        6.2148553369        3.7234708969
 H        -8.2407943075        6.0438842346        5.4325297982
 H       -13.7474852140        8.5936760633        4.7355593523
 H       -13.4323862419        7.1611918148        5.5733522078
 H       -15.7012741454        7.1169974204        4.4581002118
 H       -14.6097150488        6.1186431268        3.3920940040
 H       -14.0621434395        9.7391539637       -0.2169590744
 H       -12.7705180091        8.8296175529       -0.9983400291
 H       -12.5240600685        9.1577021002        0.8138618735
 H       -17.1713525091        6.8363620008        1.2917694898
 H       -15.7082923172        5.8677540014        1.4099917434
 H       -16.2213673678        6.4629027545       -0.1360777013
 H       -16.2221949452        9.1027278887       -0.5818234991
 H       -15.8597330952       10.1190178597        0.9665987706
 H       -17.2332525961        8.9561835118        0.7978482557
 H       -11.0431024023        9.7808823253        5.2081413194
 H       -10.2764691890        8.7065213662        6.3538335865
 H       -12.0242314216        8.6927890178        6.3287085371
 H        -9.6910685063        7.6294614620        2.6215580320
 H        -9.1007536097        8.7144165892        3.9706521797
 H       -10.3942458510        9.2547807824        2.9228389888
 H       -13.1315972396        2.7807475005        4.5561904133
 H       -12.7479489823        4.4341913901        4.1508783838
 H       -11.9568994490        3.6921881702        5.4745303855
 H        -9.8241265215        1.3697547055        3.3757420475
 H       -11.3477228269        0.6702729902        3.7309283225
 H       -10.3000798092        1.5032731353        4.9962770520
 H       -12.6807260963        5.2341375129       -2.8048868989
 H       -12.3828784463        4.7224983504       -4.3499285095
 H       -10.9066696432        5.0288842760       -3.3315687290
 H       -14.0400006190        2.7153041736       -2.4190285909
 H       -13.1583702109        1.3880184587       -3.0453510400
 H       -13.5936670937        2.7988577670       -4.1293736045
 H        -8.4069782069       -2.2921412170       -2.6397208227
 H        -8.9317223739       -0.9359824629       -3.5401055545
 H        -9.6835132153       -1.1909564965       -2.0898564495
 H        -8.5545390364       -0.4999953543        0.2473581453
 H        -6.8384566620       -0.3354199254        0.2958693930
 H        -7.5176925639       -1.8844285745       -0.0466946859
 H        -0.7710071912        0.5884175552       -4.2591292226
 H        -2.0590201544       -0.1455987852       -3.3460594815
 H        -1.9816160764        1.5696687192       -3.2814162956
 H        -3.0600378957        3.0684190797       -4.9973761475
 H        -3.5059026975        2.3328448273       -6.5884629655
 H        -1.8034989747        2.6072135508       -6.0309547817
 Na      -11.8996361391        5.4286995779        1.1608279369
