117

 C        -1.0651718789       -0.0419391503       -6.8596520853
 C        -2.4131597520       -0.2378129487       -6.2419601114
 O        -3.1929729641       -1.1098747745       -6.5208234086
 C        -2.7851772910        0.7574037431       -5.0047071091
 C        -4.2276980270        0.3883552882       -4.5482588350
 O        -5.1703016860        1.1280238213       -4.8602736122
 C        -4.4227111918       -0.9204893041       -3.7993920727
 C        -5.8661823240       -1.2660625956       -3.3305106142
 C        -6.3569377706       -0.3040334026       -2.3276150411
 O        -5.5754456999        0.5835773625       -1.9404282606
 C        -7.7952187416       -0.4842705935       -1.6659879904
 C        -8.5031435510        0.8718511125       -1.8190823886
 O        -8.9712007780        1.4753224418       -0.8676179573
 C        -8.2925837756        1.6748612661       -3.1523779527
 C        -9.3651967206        2.7514445061       -3.2667836163
 C       -10.8236044040        2.1673905874       -3.1278926781
 O       -11.0429509889        0.9630477753       -3.2845321611
 C       -12.0021456271        3.1402539100       -2.8173008845
 C       -11.9539231486        3.3771181981       -1.2330481603
 O       -11.7551023087        4.4947260131       -0.7911584152
 C       -12.1065011406        2.1731209671       -0.3072748191
 C       -11.1960532526        2.2651768666        0.9193245174
 C       -12.0188318560        2.8835764842        2.0504204870
 O       -13.1253184563        3.3641536977        1.8831615175
 C       -11.3091970673        3.0415553994        3.5368186761
 C       -10.1876657872        4.2058145862        3.4121105701
 O       -10.0230576606        4.8462556973        2.3915632853
 C        -9.0989418243        4.3266467601        4.4809872474
 C        -8.9536449191        5.8468108941        4.5677666506
 C       -10.2972196571        6.5155010726        5.1093142530
 O       -10.9235025083        5.8699053264        5.9445976514
 C       -10.8970187128        7.8966692230        4.6109237984
 C       -12.1886997724        7.5299901194        3.8536164764
 O       -12.0855626706        7.1801270473        2.7019671161
 C       -13.6080881237        7.4914923202        4.4969814657
 C       -14.7187783443        7.1295335642        3.4707111420
 C       -15.1966941361        8.3186906990        2.5942131697
 O       -15.2447943150        9.4371253521        2.9901858127
 C       -15.5245246712        7.9060942092        1.0762766250
 C       -14.0103557866        7.9306317537        0.5339012809
 O       -13.4976059389        6.8725932036        0.2490201373
 C       -13.2254711643        9.2919376631        0.3168948723
 C       -16.1943969989        6.4619055887        0.8313913297
 C       -16.4570661644        9.0661840414        0.5588647803
 C       -11.1107106267        8.7585296847        5.8887265300
 C        -9.9862164635        8.6082368458        3.5760502791
 C       -12.4520768358        3.4345756570        4.5526411452
 C       -10.6199992531        1.7290621779        4.0703095396
 C       -11.8557946482        4.4804488378       -3.5725935435
 C       -13.3892393805        2.4953146962       -3.1640168568
 C        -8.6828670127       -1.4883544480       -2.3878852555
 C        -7.6390848065       -0.9816761694       -0.2563131845
 C        -1.6980939787        0.6904053885       -3.9120293420
 C        -2.7942983850        2.2209721500       -5.5869657071
 H        -0.5734831843       -0.9798670295       -7.2716192169
 H        -0.4538815830        0.5174042586       -6.2011329208
 H        -1.4213478619        0.5750026157       -7.7628330379
 H        -3.7694142715       -0.9268799551       -2.9011225450
 H        -4.0522120974       -1.6891932362       -4.4152146469
 H        -6.0947915429       -2.2609370031       -2.9321464728
 H        -6.5153062882       -1.1662677606       -4.2265157076
 H        -8.3238813741        1.0056470328       -3.9881335471
 H        -7.3036616123        2.1697813481       -3.0390055787
 H        -9.2853561521        3.2882438189       -4.2858675913
 H        -9.2585865712        3.4860927470       -2.5024175810
 H       -11.8435319218        1.3090049849       -0.8382105852
 H       -13.1141381844        1.9683224764        0.1198809830
 H       -10.3071153175        2.8479015190        0.7136368767
 H       -10.7355395959        1.3092045291        1.1168374937
 H        -8.2388497229        3.7577232516        4.2504476337
 H        -9.5544364731        4.0835579080        5.4758099955
 H        -8.5958091088        6.1862934715        3.6421569833
 H        -8.1270195778        6.0498997950        5.2552151419
 H       -13.7924496283        8.4196164713        5.1376764182
 H       -13.4743467897        6.6694822467        5.2526928159
 H       -15.5732042202        6.7681605707        4.0975123123
 H       -14.2654418216        6.3601834626        2.8320896446
 H       -13.9279202391       10.0587597872        0.0549995180
 H       -12.7246874683        9.0197117001       -0.5933491236
 H       -12.5554312145        9.3361637568        1.1202351849
 H       -17.1867656625        6.5113672197        1.3651216106
 H       -15.4788920024        5.7384928428        1.2084292468
 H       -16.2701740670        6.2871972016       -0.2898105208
 H       -17.1154910853        8.7834441594       -0.2244433150
 H       -15.7743422751        9.8941441195        0.2849240650
 H       -17.0953699925        9.3156933842        1.3692437241
 H       -11.7023450061        9.6489008374        5.5555876532
 H       -10.1152939321        9.0392117311        6.3466532537
 H       -11.6230168767        8.1497406421        6.5827488017
 H       -10.1927212708        8.0725398683        2.6761998273
 H        -8.8943411629        8.6102332837        3.8208008388
 H       -10.2391743360        9.6104414903        3.4104059503
 H       -13.3808753906        3.0261062177        4.2364147694
 H       -12.5194559295        4.5460589775        4.5628842944
 H       -12.1996026616        3.0754583149        5.5607173122
 H        -9.8640748955        1.2420594186        3.4050039227
 H       -11.4289470239        1.0304213795        4.2545375085
 H       -10.1530199604        1.8006584976        5.0572064255
 H       -12.6868969560        5.1285311013       -3.5534866842
 H       -11.8411412183        4.3129475230       -4.6692904857
 H       -10.9461932612        4.9508472531       -3.2291475597
 H       -14.1688710173        3.0555009638       -2.5416728018
 H       -13.4606041986        1.4478862985       -2.8346972596
 H       -13.6543447386        2.5361915160       -4.1990258434
 H        -8.5195046721       -2.5141579975       -2.2054748144
 H        -8.7122949444       -1.3510184639       -3.4494562272
 H        -9.7581215318       -1.3202427268       -2.0706326622
 H        -8.5335225119       -0.9534185306        0.3831575750
 H        -6.9065269542       -0.4250849188        0.3449964159
 H        -7.1627747427       -1.9600348850       -0.2528304345
 H        -0.8484082137        1.3065140394       -4.1714961071
 H        -1.2391458442       -0.2923221865       -3.8967129837
 H        -2.0819087016        0.9660454083       -2.8926677357
 H        -2.9233202270        2.9458730701       -4.8671119551
 H        -3.5632476413        2.1811392018       -6.3718729943
 H        -1.8582441689        2.5275619828       -6.0603524654
 Na      -12.0572876735        5.4292604897        1.2459446839
