117

 C        -1.0985642748        0.0384521591       -6.9882167791
 C        -2.3501673102       -0.2938276083       -6.1036480070
 O        -3.0492474707       -1.2625975878       -6.4047149713
 C        -2.7505171892        0.7300834461       -4.9747347910
 C        -4.1844843816        0.2158021675       -4.6186804063
 O        -5.1681177382        0.7998048499       -5.0084139980
 C        -4.3503533511       -1.0308735876       -3.7642273760
 C        -5.8538384265       -1.1462767622       -3.4484952431
 C        -6.4295889271       -0.2675931367       -2.2570983736
 O        -5.7869558716        0.6201944697       -1.7994010152
 C        -7.8013212185       -0.5151808425       -1.7176994535
 C        -8.5867921856        0.7935475025       -1.8076761914
 O        -9.0580987472        1.3218052203       -0.8053746265
 C        -8.5658055435        1.4741943894       -3.2023993493
 C        -9.5379395199        2.6148352415       -3.2945882600
 C       -10.9199435198        1.9935654254       -3.1387195105
 O       -11.1849561467        0.8190260669       -3.0925214237
 C       -12.0797024196        3.0163733372       -2.8813318541
 C       -11.9490712184        3.3512532010       -1.3370970419
 O       -11.6726208905        4.4981231853       -1.0170223246
 C       -11.9345805825        2.1987459785       -0.3529512940
 C       -11.1362173682        2.4782942135        0.9760088925
 C       -11.9600409846        2.9875770905        2.1302067388
 O       -13.1071594837        3.4498087911        2.0334103349
 C       -11.2258842787        3.0583814319        3.5411745590
 C       -10.1636297123        4.1665057843        3.3144561413
 O       -10.1835129085        4.8072826916        2.2644968753
 C        -9.1690493710        4.5145392274        4.4814014335
 C        -8.9858886394        6.0444593552        4.7568548092
 C       -10.3201321530        6.5417967785        5.1881003083
 O       -11.1440450845        5.9661512764        5.8902455287
 C       -10.8164849094        8.0199550738        4.7861366755
 C       -12.0207647534        7.6670928301        3.8194001084
 O       -11.8236534598        7.3771975259        2.6352831712
 C       -13.4421780081        7.5255079783        4.4191131444
 C       -14.5273075317        7.1008091632        3.3555951624
 C       -15.0184240389        8.2380775420        2.5277231414
 O       -15.0255952262        9.3681662592        2.9751984496
 C       -15.4733904239        7.9586673456        1.0316025187
 C       -14.0478472216        8.0394345024        0.4482271007
 O       -13.6023513361        7.0501269185       -0.1251798888
 C       -13.3266519813        9.4721676107        0.5588987377
 C       -16.1257581180        6.4455841751        1.0318157420
 C       -16.5660473988        8.9958423380        0.4739578805
 C       -11.2697445140        8.8156341560        6.0675659654
 C        -9.8277565788        8.8900420602        4.0028623729
 C       -12.1673579172        3.6095556831        4.5802030724
 C       -10.6393387753        1.5997262075        3.9064200304
 C       -11.7545973307        4.3630876712       -3.6815719589
 C       -13.4649861239        2.4043717995       -3.2313774293
 C        -8.5483946927       -1.6105351004       -2.4596417300
 C        -7.6075911995       -0.8701897473       -0.1930908994
 C        -1.7602033769        0.5239722202       -3.7826553864
 C        -2.8527696981        2.1753463602       -5.4556438710
 H        -0.7739346956       -0.9239509945       -7.3498314097
 H        -0.2333795041        0.4094016319       -6.3482560440
 H        -1.3472217424        0.6205687565       -7.8451778867
 H        -3.8946023441       -1.1280948418       -2.7767090444
 H        -3.9585478839       -1.9357572168       -4.3572146356
 H        -6.1459387357       -2.1987308635       -3.2744559014
 H        -6.4222123979       -0.8195139876       -4.3287267105
 H        -8.7953187667        0.6842385811       -3.9674139539
 H        -7.5677688528        1.8650960206       -3.3152751852
 H        -9.5067771658        3.1001501064       -4.2128261488
 H        -9.4178824845        3.4032087582       -2.5081559562
 H       -11.5714451224        1.2159228566       -0.8364980128
 H       -12.9694854670        2.0281343477       -0.0412379733
 H       -10.2295057322        3.0707831296        0.7258785433
 H       -10.6878574556        1.5281990484        1.3405099375
 H        -8.2577328203        4.0326354638        3.9480071027
 H        -9.3891554008        4.0159267062        5.4176437224
 H        -8.6456155402        6.4950831287        3.7706993228
 H        -8.1413474565        6.2443549158        5.4346616878
 H       -13.6857934510        8.4731351625        4.8363475374
 H       -13.4759716675        6.8585552020        5.2810389501
 H       -15.3001308263        6.7935410700        4.0258760536
 H       -14.1573742503        6.3107323889        2.7113124414
 H       -14.1677010233       10.1318685005        0.4311654242
 H       -12.6762313227        9.5284746735       -0.2885558471
 H       -12.8665020303        9.4593598480        1.5664375412
 H       -16.8071281768        6.4276152124        1.8343779870
 H       -15.2716609336        5.7576762802        1.0986057861
 H       -16.6284029611        6.2390246150        0.1158565891
 H       -17.0689206316        8.6292397224       -0.4416864405
 H       -16.0608123404        9.8801740412        0.2345697716
 H       -17.3898904040        9.1009020836        1.2536439621
 H       -12.2265565465        9.2659586260        5.9072044150
 H       -10.5712454853        9.5936666612        6.3360938542
 H       -11.3417093914        8.0569423325        6.8190977613
 H        -9.5799653507        8.4365831251        3.0403223864
 H        -8.9085648625        9.1008652384        4.5089438574
 H       -10.3181158039        9.8630206930        3.8076508550
 H       -13.0391616115        2.8515555642        4.6438760290
 H       -12.5572094723        4.5549147980        4.1938043380
 H       -11.7009917594        3.7291489677        5.5651867875
 H        -9.9105974771        1.2268317234        3.2024912468
 H       -11.4427548443        0.8917943990        4.1150412530
 H       -10.1764352068        1.5649473482        4.8729041189
 H       -12.6967070132        4.9687682682       -3.7067478805
 H       -11.5207196209        4.3190020482       -4.7150718982
 H       -11.0886569319        5.0207636229       -3.1200038268
 H       -14.2284215826        3.1581269683       -3.2945200586
 H       -13.6937290505        1.6300030251       -2.5352346029
 H       -13.4033843424        1.8762029268       -4.1908197635
 H        -7.9509946480       -2.5880347136       -2.3958530785
 H        -8.6225624646       -1.3287098963       -3.5471317147
 H        -9.4900787982       -1.9333512700       -2.1050682633
 H        -8.5223846658       -1.0758657619        0.3012773947
 H        -7.2703656642       -0.0435256434        0.4044421422
 H        -6.8578885016       -1.6005841558       -0.0072269303
 H        -1.1609270954        1.4082726938       -3.5744778399
 H        -1.0294943089       -0.2292188937       -4.0035028044
 H        -2.2680253142        0.3628588630       -2.8838362663
 H        -2.9150903833        2.8295498358       -4.5203039245
 H        -3.5674689013        2.3277867029       -6.2437599588
 H        -1.8884863223        2.4369858324       -5.9008761626
 Na      -12.2967049048        5.4743206551        1.0835410788
