117

 C        -1.1259325142        0.1764437882       -6.9777431823
 C        -2.2642665922       -0.3375785397       -6.1113894301
 O        -2.7259863160       -1.4309080094       -6.3188527470
 C        -2.7321502195        0.6221524630       -4.9431327160
 C        -4.2881314835        0.1846691733       -4.6478954316
 O        -5.1813263227        0.7813387605       -5.1920741665
 C        -4.4305909688       -1.0064148907       -3.7446603785
 C        -5.8093979436       -1.4141631443       -3.2646881504
 C        -6.3324787336       -0.4357699187       -2.1957370789
 O        -5.6309309239        0.5034358622       -1.8390270984
 C        -7.7685601037       -0.5965132557       -1.6057093011
 C        -8.5669135195        0.7212917396       -1.8259505173
 O        -9.2369525788        1.1796976736       -0.9561139012
 C        -8.4992292247        1.2857108276       -3.2780956181
 C        -9.5544564046        2.3529410342       -3.4859641744
 C       -11.0152555652        1.8765291808       -3.1021042156
 O       -11.3631754306        0.7261925371       -3.0696248667
 C       -12.1306201906        3.0332858012       -2.8862084843
 C       -12.0264832606        3.4276536986       -1.4053715771
 O       -11.7754068542        4.5548367285       -0.9834742199
 C       -12.2146618843        2.2728967172       -0.3692969840
 C       -11.2826820109        2.3205342860        0.8931571246
 C       -11.9639838580        3.0208493433        2.0865258086
 O       -13.0481126202        3.5438985455        1.9764663703
 C       -11.1580115677        3.0886340996        3.4445823644
 C       -10.1878287820        4.3651738525        3.3231585359
 O       -10.2758865106        5.1181881111        2.3738004504
 C        -9.1088110420        4.6095434745        4.4126695907
 C        -9.1337888644        6.0959673525        4.6860628866
 C       -10.4499622059        6.6467889389        5.2509975030
 O       -11.1664547347        6.0864646787        6.0251752206
 C       -10.8575296364        8.1448045519        4.8813072971
 C       -11.9073054922        7.8337659605        3.7816933806
 O       -11.5386177340        7.5381036936        2.6469401821
 C       -13.2915824188        7.6331948428        4.3804156439
 C       -14.3940153135        7.0672565616        3.4941715810
 C       -14.9346355867        8.1963466282        2.5872069479
 O       -14.9868626918        9.3256629370        3.0746046328
 C       -15.3732076653        7.9113294538        1.0901229235
 C       -14.0518347099        8.0898936540        0.3201731505
 O       -13.7398150571        7.2011071614       -0.4700045712
 C       -13.3819797935        9.5142232117        0.3621688693
 C       -15.9251416015        6.4515071527        0.9274330458
 C       -16.4742154244        8.9427036447        0.6906972895
 C       -11.5303332366        8.8708659222        6.0876417737
 C        -9.6544500515        9.0497637351        4.3824174943
 C       -12.1330477398        3.4317192315        4.6213381132
 C       -10.4741995383        1.7817606259        3.8260274386
 C       -12.0449537419        4.2454576632       -3.8000424924
 C       -13.5306277188        2.4182026764       -3.1096526671
 C        -8.5269127601       -1.7655576609       -2.2657877792
 C        -7.7389003494       -1.0137741690       -0.0797767881
 C        -1.7497997604        0.3707079137       -3.7658958179
 C        -2.6974825625        2.0849953891       -5.3993736778
 H        -0.6601601736       -0.5646309082       -7.6154229816
 H        -0.3052237770        0.4964190370       -6.3741227999
 H        -1.6153337814        0.9635638904       -7.5527119051
 H        -3.8326198303       -0.8981951436       -2.8499745262
 H        -4.0459738249       -1.8564870779       -4.2295804598
 H        -5.7493981410       -2.3855832585       -2.7776676373
 H        -6.4733132833       -1.5099686130       -4.1370013545
 H        -8.6389022578        0.4320773160       -3.9007347607
 H        -7.4878102524        1.7134606131       -3.4817087272
 H        -9.6202870305        2.6592722025       -4.5930973328
 H        -9.3320645676        3.2606847549       -2.9653507741
 H       -12.0334954838        1.3587087354       -0.8156878114
 H       -13.2613111151        2.2895647985       -0.0056874170
 H       -10.3743133065        2.8387368437        0.5772913937
 H       -10.9241096442        1.3190762837        1.1433514384
 H        -8.2203518864        4.2707196770        4.0069261120
 H        -9.3296011538        4.0225963131        5.3154278213
 H        -8.8846158975        6.4832951115        3.7354511074
 H        -8.2705942871        6.3687750568        5.2915282123
 H       -13.5655156304        8.5935360562        4.8548053905
 H       -13.1156947366        7.0092139084        5.2558267961
 H       -15.1929614519        6.8242276263        4.2145376791
 H       -14.0158325305        6.1780886350        2.9662877303
 H       -14.2414855694       10.1562738892        0.5928590508
 H       -13.0297884697        9.7240627960       -0.6897241689
 H       -12.6508482087        9.4700063155        1.1657887318
 H       -16.5983728940        6.3023871557        1.7825611037
 H       -15.1767234910        5.7354644549        0.7844695702
 H       -16.6063638232        6.4758232261        0.1022230158
 H       -16.4686046731        9.2091682580       -0.3835517596
 H       -16.2675036224        9.9001900484        1.2747629336
 H       -17.3851484749        8.5141348169        0.9627283104
 H       -11.8013303174        9.8566675440        5.7482270322
 H       -10.7224509623        9.0957916721        6.7470939917
 H       -12.4579925483        8.3111901247        6.5636658831
 H        -9.0708937959        8.7306913857        3.4928874130
 H        -8.9274283586        9.0264785626        5.2178981921
 H        -9.9808792717       10.1014407248        4.3137833539
 H       -12.6337289244        2.6186688651        4.9538891688
 H       -12.8118853957        4.1836053057        4.2712970431
 H       -11.5142716400        3.8065822941        5.4131921021
 H        -9.5961833039        1.5694815335        3.2562610403
 H       -11.1569269144        0.9581757604        3.8415583833
 H       -10.2259905626        1.7704625528        4.9153195272
 H       -12.6955475045        5.0977928800       -3.5310297874
 H       -12.3504171155        3.8615955451       -4.8092655139
 H       -11.0844127831        4.7826824509       -3.8906792062
 H       -14.2323515318        3.2376400905       -3.0967663706
 H       -13.6995950521        1.6081292345       -2.3432543134
 H       -13.6178671001        1.9118783337       -4.0763599513
 H        -8.1212370747       -2.7027342064       -2.0946809157
 H        -8.6318217224       -1.5896039236       -3.2985080997
 H        -9.5361101987       -1.9126034704       -1.8085452124
 H        -8.7167449740       -1.1512575848        0.3831080295
 H        -7.2586037146       -0.4100130682        0.6756791044
 H        -7.1772289163       -1.9659535257       -0.0505062949
 H        -0.9163436826        1.0404314963       -4.0002175352
 H        -1.2940555027       -0.6348186947       -3.6423252430
 H        -2.0710141246        0.8199415813       -2.7989066358
 H        -3.1083539355        2.6439698977       -4.5900878686
 H        -3.2743353612        2.2501567115       -6.3214790408
 H        -1.6720327722        2.4160006251       -5.6780381125
 Na      -12.3250814041        5.7092969855        0.8838242838
