117

 C        -1.3681608653        0.2987830950       -7.1683410744
 C        -2.1212085880       -0.4551922215       -5.9992292372
 O        -2.1595245185       -1.6810523690       -6.0051543965
 C        -2.6862032163        0.3921480360       -4.8828098578
 C        -4.0940393134       -0.0530270137       -4.4445136450
 O        -5.0337929222        0.5663908594       -4.8497282569
 C        -4.3574745178       -1.3711182000       -3.6734601931
 C        -5.9166043242       -1.4963105620       -3.4484358734
 C        -6.3035166954       -0.6520922814       -2.1782392877
 O        -5.5223277247        0.1233263879       -1.7374875538
 C        -7.8285273288       -0.7710425438       -1.5591292836
 C        -8.6815760496        0.5339405238       -1.9722702863
 O        -9.3094257543        1.0749679519       -1.1240920034
 C        -8.8446896695        0.9526715993       -3.4534845863
 C        -9.7538506780        2.1776192593       -3.4410571475
 C       -11.2144569453        1.7219265771       -3.1291252775
 O       -11.5575227776        0.5830237559       -3.1102800366
 C       -12.2897721267        2.9288173188       -2.8397995161
 C       -12.2063031418        3.2826539932       -1.3564779369
 O       -11.7874460848        4.3661279914       -0.9631749568
 C       -12.6212968201        2.2560250562       -0.3224004986
 C       -11.8290774121        2.2103995449        1.0135383159
 C       -12.0992552740        3.3251537687        1.9522071520
 O       -12.9135143765        4.1765290852        1.7570351729
 C       -11.1721415933        3.3251016428        3.2132535912
 C       -10.3271264876        4.6339988990        3.3878787792
 O       -10.5025260855        5.5834317888        2.6325813011
 C        -9.2885150196        4.7576640450        4.5246456897
 C        -9.0443532711        6.3044026507        4.7594435228
 C       -10.2360917644        6.8349547251        5.5022233730
 O       -10.8537326367        6.2635144492        6.3730650330
 C       -10.7509720799        8.3695026808        5.0617706541
 C       -11.8638707393        7.9007864773        3.9873265966
 O       -11.7414483358        8.0856860648        2.7642297793
 C       -13.2564822436        7.3205805399        4.4966637954
 C       -14.1483254590        6.9655470687        3.2869478389
 C       -14.7779081543        8.1362161973        2.5163212212
 O       -14.8861967263        9.2453582547        3.0533540473
 C       -15.3827068511        7.9155204393        1.0099382932
 C       -14.1175268215        8.1987049333        0.1376930453
 O       -13.3129857648        7.3258354297       -0.1749657744
 C       -13.8161775153        9.6352486167       -0.2197492677
 C       -15.8138536407        6.4860986103        0.7542502861
 C       -16.5076464288        9.0047582709        0.5921822245
 C       -11.2466381630        9.0231176597        6.4187916988
 C        -9.7814303163        9.2792626715        4.3478861401
 C       -12.0134274006        3.0412254469        4.4704586448
 C       -10.1757497216        2.1463213358        3.1971755383
 C       -12.0048536948        4.0936504448       -3.7567836793
 C       -13.7386940061        2.3197475173       -3.2320714935
 C        -8.5252646528       -2.0906140377       -2.1659771310
 C        -7.6755432910       -0.8683441923       -0.0562156868
 C        -1.6473041962        0.4778193954       -3.7174767826
 C        -2.9516434443        1.8519853109       -5.3819046078
 H        -0.8841889610       -0.3945866623       -7.7945913256
 H        -0.5354424068        0.9034166114       -6.7764009862
 H        -2.0662755355        0.9163421633       -7.6301039289
 H        -3.9997449633       -1.4420913948       -2.6338548926
 H        -4.0281801220       -2.3005399258       -4.1170428017
 H        -6.1671751286       -2.5384416977       -3.3432343364
 H        -6.4175902132       -1.0191914532       -4.3046744286
 H        -9.2714901049        0.1018512130       -3.9438820954
 H        -7.8557901723        1.1053561868       -3.9766853978
 H        -9.7040472103        2.7788517018       -4.3916661091
 H        -9.5263551343        2.8848572775       -2.6839928517
 H       -12.4443871935        1.3104817634       -0.7320766256
 H       -13.7148719739        2.3912149668       -0.0876481196
 H       -10.7463323452        2.1953675268        0.7908553465
 H       -12.0999720270        1.2361362205        1.4793272702
 H        -8.4458859698        4.2758364454        4.1184422975
 H        -9.5761207951        4.1726873732        5.4189793745
 H        -8.9032678991        6.7117830873        3.7632444969
 H        -8.0517850037        6.4229733191        5.2082728385
 H       -13.7087802811        8.1971742333        4.9329528969
 H       -13.1708654588        6.6441596743        5.3057851270
 H       -15.0077848644        6.3637322601        3.5583933124
 H       -13.5876136035        6.3824585986        2.5432778275
 H       -14.3470700998       10.2685548699        0.5125374839
 H       -14.2109603981        9.8978700393       -1.2622226548
 H       -12.7273196225        9.6691808665       -0.0195893217
 H       -16.6863544632        6.2238001717        1.3588326045
 H       -15.0275718273        5.7941972244        0.9215428063
 H       -16.0797204806        6.4789224860       -0.2512443617
 H       -16.2226844307        9.5445187712       -0.3392140280
 H       -16.6120565585        9.7579430534        1.4311371329
 H       -17.4765478868        8.6035486918        0.5032189341
 H       -12.1511038352        9.5658373618        6.1875519641
 H       -10.5509745344        9.7494757663        6.7675771923
 H       -11.5772624006        8.2443878129        7.2077467258
 H        -9.4838831746        8.7550863464        3.4123668203
 H        -8.8322249811        9.4325175702        4.7955656799
 H       -10.2946363395       10.2380985649        4.0273038966
 H       -12.4323367042        2.0611729216        4.3380342538
 H       -12.8255263301        3.7768423241        4.5110096119
 H       -11.3703285761        3.0267179392        5.3722144894
 H        -9.3944338226        2.2160154814        2.5017177008
 H       -10.6568853134        1.1982747198        2.9475206508
 H        -9.6441113356        2.0844718876        4.2156540824
 H       -12.9522703220        4.7004643877       -3.7675030602
 H       -11.6540533783        3.7633241250       -4.7255263509
 H       -11.2246011158        4.8226543671       -3.5616722448
 H       -14.4734336203        2.7589736356       -2.6446976408
 H       -13.7230060788        1.1959383532       -3.1295981933
 H       -13.9023074552        2.6496959811       -4.2738360492
 H        -7.9369695745       -3.0133829402       -2.0059187318
 H        -8.6614531905       -1.9696765569       -3.2543361454
 H        -9.5685032418       -2.2641092144       -1.7204846269
 H        -8.5618635592       -1.0926852320        0.5020524981
 H        -7.2011376237       -0.0420835995        0.3945137495
 H        -7.0248660427       -1.7088031441        0.2105202424
 H        -0.8873457921        1.1905173531       -3.9452586865
 H        -1.1836486409       -0.5123647151       -3.6544099557
 H        -2.0278504253        0.6420661504       -2.7246073278
 H        -3.5153848619        2.2954565199       -4.5771293840
 H        -3.7831517537        1.8241050576       -6.0660599208
 H        -2.1455838502        2.4658636412       -5.8331052590
 Na      -11.9334757265        6.0775130757        0.7639859372
