117

 C        -2.1694095811       -0.2316329617       -7.1110595753
 C        -2.2125258520       -0.6267946487       -5.6778142982
 O        -1.8923377597       -1.7056320375       -5.2566523891
 C        -2.8837899316        0.4736499828       -4.6153594982
 C        -4.3485599773       -0.1064066944       -4.4291360402
 O        -5.3085588367        0.5955758715       -4.7979423921
 C        -4.5069943563       -1.4482000400       -3.8346957259
 C        -5.8778935224       -1.7294867814       -3.2720073868
 C        -6.3200316552       -0.7814228033       -2.2170942212
 O        -5.6147907692        0.1105085651       -1.7621423017
 C        -7.7263742651       -0.9756989250       -1.6376281614
 C        -8.5397518167        0.3050978094       -1.8919028321
 O        -9.0236636043        0.9731740272       -0.9544150514
 C        -9.0742477901        0.5522920079       -3.2763559414
 C        -9.8964196151        1.7942249453       -3.3768829995
 C       -11.3984091558        1.5679514168       -2.9954501131
 O       -11.9245768134        0.5115283936       -2.7135404890
 C       -12.2363630928        2.8869041022       -2.8118257905
 C       -12.1478220463        3.3068747690       -1.3147903287
 O       -11.4605926571        4.2599351860       -0.9698864657
 C       -12.9543817145        2.4388030571       -0.2947923625
 C       -12.0418266669        2.1408297160        0.8909844610
 C       -11.9355269899        3.3740071922        1.8642278209
 O       -12.5937474916        4.3831615203        1.7363818312
 C       -10.9170139387        3.2623831188        3.0383794475
 C       -10.3000668127        4.7232653659        3.2527554529
 O       -10.4131651492        5.5871729609        2.4042226324
 C        -9.3528693727        4.9454741433        4.4754600315
 C        -9.1653673521        6.4474636647        4.7378322603
 C       -10.3094747354        7.1216289985        5.4303296086
 O       -10.8061155720        6.5859731301        6.4007735003
 C       -10.9359352857        8.5120416467        4.9913957336
 C       -12.0181109087        8.0021950607        3.9038691772
 O       -11.7842326974        7.9875720666        2.7233183233
 C       -13.2764691636        7.3991521479        4.4456637479
 C       -14.1580727368        7.0059514238        3.2536289283
 C       -14.6662859211        8.2730722000        2.4911807488
 O       -14.6485657239        9.3550611160        2.9762588654
 C       -15.1853885106        8.0039182250        0.9523402716
 C       -13.9922879913        8.5641353797        0.1159937464
 O       -12.9665354810        7.8994380982        0.0090142198
 C       -14.1705910275        9.8220864698       -0.7241760907
 C       -15.3453360116        6.4112514378        0.6800504351
 C       -16.5257087800        8.7230385415        0.8490017012
 C       -11.5014869658        9.3635531705        6.2507471251
 C        -9.8419624922        9.2768722228        4.1912824588
 C       -11.7633482898        2.8188257420        4.3153419717
 C        -9.7630866118        2.3547478564        2.6222616554
 C       -11.7450461236        4.1090646679       -3.6756664846
 C       -13.7576905460        2.5838499910       -3.1688727919
 C        -8.4485234486       -2.1841973128       -2.2947031631
 C        -7.6989342488       -1.2989686805       -0.1016316859
 C        -2.0318555362        0.3938992672       -3.3225399520
 C        -2.7902313294        1.8177283142       -5.2909731267
 H        -1.8568199551       -1.0356387766       -7.7740984995
 H        -1.5489933482        0.6343842529       -7.1553106091
 H        -3.1198385173        0.1170969785       -7.4466335425
 H        -3.8290916187       -1.5698717589       -3.0648483171
 H        -4.2790664221       -2.2382244113       -4.5579600931
 H        -5.9909140071       -2.7176806952       -2.8031069937
 H        -6.5286307017       -1.6305404871       -4.1419474336
 H        -9.6522428190       -0.3496972661       -3.5642205608
 H        -8.2482254481        0.5434896918       -3.9828414803
 H        -9.8890683493        2.1349032535       -4.3878101439
 H        -9.5266167019        2.6384112646       -2.7204152174
 H       -13.2472016473        1.4938266559       -0.8182506343
 H       -13.8019041267        2.9762699491        0.0580761817
 H       -11.0157170384        1.9141589244        0.5851549200
 H       -12.4672261853        1.3207237000        1.5266391229
 H        -8.3983921786        4.4407955096        4.2156755690
 H        -9.7003812375        4.4392495433        5.3116830231
 H        -8.7513202339        6.8453986719        3.7910703961
 H        -8.4188400745        6.4762675738        5.5104565271
 H       -13.7178966564        8.0251264645        5.1622536011
 H       -13.0158983498        6.4644409836        4.9301192092
 H       -14.9539903678        6.3756822093        3.6146636302
 H       -13.6091094240        6.2978991862        2.6210570819
 H       -13.5912699244       10.6884860913       -0.2730179350
 H       -15.2295189778       10.0635199326       -0.8009406130
 H       -13.6647939632        9.5832608666       -1.6945129229
 H       -16.0942650417        5.9682653279        1.2706530858
 H       -14.4205716035        5.9102345653        0.9722882201
 H       -15.5299937765        6.1457166138       -0.3636627659
 H       -17.1322607699        8.3792505150       -0.0144957101
 H       -16.5564096178        9.7735436103        0.8537797281
 H       -17.1558637985        8.4234986486        1.7697418152
 H       -12.3363971443        9.9872992228        5.9451759548
 H       -10.7386194748        9.8922629773        6.8315318870
 H       -11.8019158065        8.7267214273        7.0566342690
 H        -9.6064260866        8.9127086213        3.1890904377
 H        -8.9008850376        9.2758266436        4.7961106876
 H       -10.0683705292       10.3400700195        4.0828750927
 H       -12.2516636397        1.7950317092        4.1500067196
 H       -12.4769379924        3.6081018585        4.5731289551
 H       -11.0100937558        2.7415496717        5.0944179859
 H        -9.2327539874        2.8258745602        1.7260180721
 H       -10.0480380342        1.3118869579        2.3448364906
 H        -8.9896029621        2.2704077177        3.3464429565
 H       -12.1607939648        5.0944168349       -3.5141910704
 H       -11.9096185474        4.0493375032       -4.7559509712
 H       -10.6423478478        4.1457598597       -3.5928907516
 H       -14.2841547110        3.4907498520       -2.8027410115
 H       -14.0904014792        1.8101068124       -2.5600138875
 H       -13.8856409446        2.4722551603       -4.2315399850
 H        -7.8098075076       -3.1132661275       -2.1597610886
 H        -8.6657559105       -2.1491206952       -3.4005847644
 H        -9.3713183462       -2.1762391415       -1.7885861490
 H        -8.5347894614       -0.8909997326        0.4379589994
 H        -6.8036578152       -0.8933381625        0.3603891849
 H        -7.7478376496       -2.3345092084        0.1719906845
 H        -1.0234999138        0.6019196498       -3.6895390058
 H        -1.9911607769       -0.5644779397       -2.8545283118
 H        -2.2703344700        1.0717515137       -2.5455523972
 H        -3.1310144133        2.5857455700       -4.5173585128
 H        -3.4097808842        1.8567138648       -6.1753172893
 H        -1.7788198249        2.1451957729       -5.4460505858
 Na      -11.8415313574        6.1790700882        0.4712970824
