117

 C        -2.4666918720       -0.4651811918       -7.0727030312
 C        -2.2358933053       -0.6271357408       -5.5085569309
 O        -1.7984084533       -1.6883268728       -5.0509348854
 C        -2.8667054559        0.4467426737       -4.5732195746
 C        -4.2771959946       -0.1143362477       -4.4242827314
 O        -5.2064678664        0.5297815756       -4.8152991191
 C        -4.5103050833       -1.4760501236       -3.7282721537
 C        -6.0651703882       -1.7033347058       -3.4597550021
 C        -6.5174942082       -0.8639953856       -2.2329379733
 O        -5.8141462981        0.0267590015       -1.8153869893
 C        -7.9174550946       -1.1709076826       -1.4999005008
 C        -8.7246344608        0.1200566110       -1.7625170358
 O        -8.8533254737        0.9804638988       -0.9310927740
 C        -9.1685844145        0.4055531484       -3.1848118941
 C        -9.8495978749        1.7478386411       -3.3410320243
 C       -11.3510385085        1.6835209715       -2.8781513052
 O       -11.8274086403        0.6037897602       -2.5712632550
 C       -12.2107974869        3.0045403946       -2.8193501786
 C       -12.1385091960        3.4873654504       -1.3481789984
 O       -11.5360152987        4.5119600053       -1.0621383537
 C       -12.7687631025        2.4675058929       -0.3015479607
 C       -11.9145284192        2.2113649054        0.9083002445
 C       -11.9153075092        3.3903862523        1.8788519166
 O       -12.8242450850        4.2224697439        1.8567806303
 C       -10.8350269874        3.3460151981        3.0190061719
 C       -10.1833511081        4.7495376226        3.1520171315
 O       -10.1184862358        5.4976122702        2.1898148401
 C        -9.4648886799        5.0174035950        4.5167567628
 C        -9.1481204422        6.5401772468        4.6787455109
 C       -10.3291362880        7.1853810216        5.3964700066
 O       -10.9590184149        6.5227939699        6.2201840295
 C       -10.7852088784        8.5538322154        4.9305599333
 C       -11.9224088983        7.9143143355        3.9404789351
 O       -11.6213006322        7.7933018073        2.7688233695
 C       -13.2825506787        7.5326560604        4.5112572928
 C       -14.2414259823        7.0301287006        3.4448462298
 C       -14.6255999412        8.1299953349        2.4345449139
 O       -14.6173291448        9.2888508548        2.7745467836
 C       -15.0901917921        7.8847861364        0.8545338453
 C       -14.0343847570        8.6794095098        0.0156831818
 O       -13.0002506213        8.1072646784       -0.2757700840
 C       -14.3537478732        9.9972347275       -0.7430573180
 C       -15.3261718553        6.4729879633        0.4517334208
 C       -16.4424758397        8.6524269026        0.7884360921
 C       -11.4010303853        9.3688356096        6.0824103192
 C        -9.7968047648        9.4716530535        4.1742294823
 C       -11.4244320865        2.6931934498        4.2671144804
 C        -9.6361525396        2.3750471946        2.6681434980
 C       -11.6412942119        4.0136603022       -3.7849709583
 C       -13.7548256173        2.7436953458       -3.1633158501
 C        -8.6177997418       -2.4312923442       -2.1921587614
 C        -7.6471557124       -1.3609211954       -0.0083256589
 C        -2.0280872770        0.5296655180       -3.2573533833
 C        -2.9836667596        1.8751933962       -5.1819203074
 H        -2.3862881420       -1.4621132347       -7.5091052651
 H        -1.9355734498        0.4032063855       -7.5714563783
 H        -3.5176793980       -0.2553041533       -7.3190115782
 H        -3.9756406970       -1.7244210126       -2.7722538547
 H        -4.1707799296       -2.2823519713       -4.3681107114
 H        -6.3488770534       -2.7463699570       -3.2862818140
 H        -6.5868436860       -1.3212461734       -4.3478211377
 H        -9.8828222024       -0.3533150857       -3.4760037597
 H        -8.3168696090        0.2402884387       -3.8693814940
 H        -9.9000628958        2.0053393301       -4.4458025671
 H        -9.3834875344        2.5427740052       -2.7953818868
 H       -12.9040200074        1.5562400525       -0.8223505729
 H       -13.7826164990        2.8739372650       -0.0248279953
 H       -10.9080536312        1.9618132666        0.5877584287
 H       -12.3158783591        1.4195753752        1.5039529484
 H        -8.5884567758        4.4154836837        4.6833702866
 H       -10.2406185001        4.6531936517        5.2638557332
 H        -9.0431235456        6.8538312438        3.6586934930
 H        -8.2119314804        6.6400906957        5.2368818291
 H       -13.7287505931        8.4941135552        4.9516027776
 H       -13.1185886410        6.7775834891        5.3170482348
 H       -15.1869454408        6.6081342538        3.8709780780
 H       -13.8448755771        6.1581575719        2.8999056839
 H       -14.2266514746       10.8863134225       -0.1475491820
 H       -15.3808858610        9.9927708339       -1.1801103360
 H       -13.6149327767       10.0381989960       -1.5489207748
 H       -15.9915823578        5.9886862016        1.1926688547
 H       -14.5165138535        5.7962236126        0.2333462654
 H       -15.9603000764        6.4775956428       -0.4157515403
 H       -16.6187881838        9.2128247556       -0.1475476073
 H       -16.5366757253        9.4264969908        1.5954480052
 H       -17.3099400163        8.0634084488        0.8576154851
 H       -12.1974594802       10.0318778751        5.6521337657
 H       -10.5990973837       10.0354483728        6.4577515336
 H       -11.7027261080        8.9686029818        7.0288880464
 H        -9.5739247688        9.0545031720        3.1688642581
 H        -8.8996404397        9.8101893760        4.6419047689
 H       -10.3528482628       10.4257535761        3.9723893091
 H       -11.7634337600        1.7498754226        3.9683404987
 H       -12.2382750591        3.2639484313        4.6128109525
 H       -10.6652010845        2.5753245874        5.0047821869
 H        -9.0897978935        2.5783263716        1.8041008048
 H        -9.9529891973        1.3423644577        2.7166834101
 H        -8.8873213900        2.3605306130        3.5195389867
 H       -12.3331165940        4.8783494235       -3.9139090394
 H       -11.5364961456        3.7730503327       -4.8451790681
 H       -10.7181500009        4.4511664234       -3.4156519111
 H       -14.3682576057        3.3645214703       -2.5641720501
 H       -13.9095841664        1.6572616841       -2.8651430946
 H       -13.9252755030        2.9433732279       -4.2453063123
 H        -8.1050806966       -3.3110061065       -1.8957713265
 H        -8.5394724108       -2.3238966394       -3.2454633392
 H        -9.6948586409       -2.4917335536       -1.8953026295
 H        -8.5503996909       -1.1196617836        0.5755784246
 H        -6.8636171517       -0.7357602410        0.3990962186
 H        -7.4295601022       -2.4290530285        0.2430545456
 H        -1.0330707854        0.9508169381       -3.3322973861
 H        -1.9873455452       -0.4391176609       -2.7247509865
 H        -2.6420990049        1.1731212642       -2.5900649550
 H        -3.1878329858        2.5758436485       -4.4277498656
 H        -3.6920422775        1.8369863064       -5.9942190936
 H        -2.0136899154        2.2152881259       -5.5687964061
 Na      -11.9118340215        6.1733210156        0.7327358562
