117

 C        -4.4516072678        1.1281714944       10.4584724833
 C        -4.5108170998        2.1853425582        9.3452433805
 O        -5.2284481324        3.1534935064        9.4433140224
 C        -3.5961647700        2.0775702130        8.2387915026
 C        -4.5755276042        1.5113335788        7.0111373361
 O        -4.4587532999        0.3695023856        6.6425148926
 C        -5.7586208696        2.3242971406        6.4861826019
 C        -6.6507752951        1.5190948816        5.5820100794
 C        -7.7386496586        2.4204232640        5.0422546072
 O        -8.0908468939        3.4155853708        5.6472975162
 C        -8.5884491518        1.9335982613        3.7003226316
 C        -9.8076176717        2.9072737463        3.5393982012
 O       -10.9000872733        2.7073789662        3.9543838921
 C        -9.3773255470        4.2837944112        2.9684117581
 C       -10.5488365360        5.1851373090        2.9112689871
 C       -11.0577547940        5.4314013556        1.4362321507
 O       -10.2955944083        5.1088332209        0.5682436547
 C       -12.5860334310        6.1880765248        1.3880919234
 C       -13.3501066129        5.8818642184        0.0997631157
 O       -12.9115703017        6.1985186572       -0.9691248897
 C       -14.6495351407        5.0293755654       -0.0425314065
 C       -14.4068443715        3.8540260338       -1.0670003772
 C       -13.4472232096        2.7443592592       -0.5608952914
 O       -13.0562181740        2.6458045258        0.5983449200
 C       -13.0043508846        1.6116008983       -1.5602884097
 C       -12.3470848319        2.3340872999       -2.8211250092
 O       -11.9175122531        3.4737976458       -2.6553374121
 C       -12.1734380209        1.5854269813       -4.2265389252
 C       -11.3455648904        2.4143527785       -5.2541824803
 C       -12.2585413972        2.5418691750       -6.5898342889
 O       -13.3739031253        2.0992764665       -6.7825248959
 C       -11.4960063435        3.3409030652       -7.8596340565
 C       -10.5311580461        4.4137774230       -7.3615883133
 O        -9.3979726975        4.1577872175       -6.9881293855
 C       -11.2381524058        5.7620716335       -7.1838928218
 C       -10.4299549883        6.5919146922       -6.1980319219
 C        -9.9651787827        5.8950767086       -4.9203830815
 O       -10.7990075176        5.5770740448       -4.0576145923
 C        -8.5206640392        6.0943136407       -4.4195118121
 C        -8.1555748124        4.8020382274       -3.5082386865
 O        -8.4505203349        4.7094258459       -2.3384507519
 C        -7.4296893169        3.7543468622       -4.1918304041
 C        -7.5166944248        6.2255537950       -5.5553055565
 C        -8.5859924752        7.4229936442       -3.6346361782
 C       -10.6036450065        2.3600910277       -8.7055906659
 C       -12.5123243777        3.9762240652       -8.8675501840
 C       -11.9377035346        0.7202949703       -0.9346818640
 C       -14.1896578593        0.7149567235       -1.9247331227
 C       -13.4615487345        5.7979774305        2.5928082356
 C       -12.2628822241        7.7341365685        1.4472569217
 C        -7.6324466978        1.8601077026        2.5705218104
 C        -9.1516077093        0.5605263135        3.9966614415
 C        -2.9357154974        3.3854795626        7.8888633915
 C        -2.4390467695        1.0178626652        8.4581038721
 H        -4.4911875008        0.0538677122       10.1998977013
 H        -5.4235435055        1.4024156450       10.9824573510
 H        -3.5920459546        1.1138977108       11.1566302725
 H        -5.3912685982        3.3280000655        6.0177255282
 H        -6.3273461405        2.6754551586        7.4159147492
 H        -7.1583783083        0.7157114539        6.0635746554
 H        -6.0992701142        1.0533271432        4.7117484769
 H        -8.8650084256        4.1458667838        1.9847521976
 H        -8.5782002149        4.6506424097        3.6552463238
 H       -10.4461513253        6.1712072551        3.4219934199
 H       -11.3099702193        4.7223771638        3.4418335666
 H       -15.3910301019        5.8297053478       -0.3793546211
 H       -15.1114619560        4.5996391871        0.7880011569
 H       -14.1562151007        4.1560793775       -2.0125749226
 H       -15.2983604890        3.2507117691       -1.3570907682
 H       -13.0044707767        1.0767224482       -4.7067414535
 H       -11.5521778641        0.7566054707       -3.8893943001
 H       -10.4470063946        1.8498331055       -5.5174715300
 H       -11.1188902012        3.4588178962       -5.0305172238
 H       -12.2974345689        5.6646586401       -6.8671229305
 H       -11.2159537032        6.2826697937       -8.1416254223
 H       -11.0659135887        7.4676271745       -5.8785226170
 H        -9.6046991619        7.1233548325       -6.7207642451
 H        -7.8753867281        2.8050097080       -3.9509795338
 H        -6.3677134007        3.6587095003       -3.8284644075
 H        -7.3181929777        3.8357355556       -5.2697447356
 H        -7.5096863879        7.3049112560       -5.9805768870
 H        -7.6561053932        5.5246757139       -6.3359627247
 H        -6.5518227407        6.0940187245       -5.2233233071
 H        -9.3401752571        7.3021882277       -2.8838496049
 H        -8.7120533291        8.3563000662       -4.2745333046
 H        -7.5812958288        7.4880511550       -3.1416683362
 H       -11.0583695847        1.5340426213       -9.1192809629
 H        -9.7575117474        1.9754122473       -8.1192682735
 H       -10.1028179920        2.9718729689       -9.5142479579
 H       -13.4259434774        3.3731222967       -8.9309127508
 H       -12.0662457696        4.1016691715       -9.8304131289
 H       -12.8243385147        5.0196354027       -8.5638618246
 H       -12.3209399943        0.1290703319       -0.1574311319
 H       -11.2935724338        1.3504970323       -0.3412263351
 H       -11.3516905904        0.1917496084       -1.6292241026
 H       -14.5472768730        0.2428634078       -1.0709172126
 H       -14.0262407291       -0.0105577361       -2.7418215535
 H       -14.9863384188        1.2975948359       -2.4506364052
 H       -14.4894568288        6.2103783746        2.5056157898
 H       -13.1480515910        6.1404460499        3.5752890472
 H       -13.5351520592        4.6877121106        2.6737123968
 H       -11.7007821791        8.1282089612        0.6423899300
 H       -11.7108599438        7.9020911278        2.3573431479
 H       -13.2240976160        8.2536596653        1.5481007597
 H        -6.8126300535        1.2255354729        2.8223751860
 H        -7.2578800636        2.8498719893        2.3867425913
 H        -8.0963522481        1.4409144779        1.6888775704
 H        -9.7327901528        0.4672633246        4.9337008371
 H        -8.4133013681       -0.2461575396        4.1439625194
 H        -9.8353721723        0.1742615881        3.2028969086
 H        -3.7171819863        4.1374661776        7.9095221390
 H        -2.4393894555        3.3344617255        6.9217760337
 H        -2.2481286904        3.6711169255        8.6704982988
 H        -2.8467829625        0.0425307061        8.5208070704
 H        -1.7813413397        1.2908281142        9.2522347358
 H        -1.7794834544        1.1336748684        7.6403893406
 Na      -10.7892487130        5.2546830366       -1.6588208177
