117

 C        -2.7121967741       -0.8199381607       -6.8775511285
 C        -2.2398496592       -0.6732647246       -5.4036153455
 O        -1.3446220114       -1.3707714308       -4.9579072275
 C        -3.0140318866        0.3668011578       -4.5659734383
 C        -4.4985289081       -0.1637646747       -4.4081941295
 O        -5.4758217587        0.4503722050       -4.8207037973
 C        -4.6755872803       -1.5535553422       -3.6283924130
 C        -6.1782037831       -1.9394436904       -3.1952205288
 C        -6.6351482184       -1.0644280404       -2.0117283830
 O        -6.0028678926       -0.1059682607       -1.5214405971
 C        -8.0849430553       -1.2468486273       -1.3712413117
 C        -8.9034876322       -0.0108012632       -1.6712150319
 O        -9.2827135980        0.7309760009       -0.7448008522
 C        -9.2964095384        0.3391971566       -3.1212084656
 C        -9.8232567269        1.7486263453       -3.2995827080
 C       -11.3225488185        1.8413598696       -2.7421871910
 O       -11.8172403308        0.8500601750       -2.2290926843
 C       -12.1015124778        3.2196167926       -2.8475384565
 C       -12.3506555671        3.7550746961       -1.3400406112
 O       -12.1564151601        4.9382011914       -1.0936202277
 C       -12.7831095609        2.7746627909       -0.2487793250
 C       -11.6041764168        2.4528555705        0.6616771675
 C       -11.6049925723        3.2547567038        1.9683009731
 O       -12.4921706433        4.0856803988        2.1766342514
 C       -10.4161332309        3.1671407800        2.9485142511
 C        -9.8034374627        4.6752354629        3.0731215393
 O        -9.9078706061        5.4639417931        2.1659909973
 C        -8.9548873506        5.0858097561        4.3745082113
 C        -9.0201989984        6.5769251561        4.6170494390
 C       -10.2783874477        7.1205847293        5.3362677464
 O       -10.7493688662        6.5536867530        6.2889917276
 C       -10.9240681119        8.5155109823        4.7691975093
 C       -11.9603660636        8.0487598404        3.6797048355
 O       -11.6312292829        7.8512690908        2.5197131238
 C       -13.2916217831        7.6558124847        4.2509091033
 C       -14.3188788681        7.3149440149        3.1776490015
 C       -14.7142266434        8.4370064513        2.0543637377
 O       -14.5145883327        9.5797652059        2.2398778630
 C       -15.2456667523        7.9302744053        0.6430122565
 C       -14.0781984637        8.5116091758       -0.2385204956
 O       -13.0058235333        7.9386996338       -0.2491174417
 C       -14.0982185728        9.9635460802       -0.5522791867
 C       -15.2775969948        6.3785648560        0.6250651656
 C       -16.7476484421        8.3299573501        0.4973915319
 C       -11.5047269616        9.4580177089        5.8837540111
 C        -9.8445506390        9.4934197175        3.9781581119
 C       -10.9785244185        2.6482852419        4.3065222924
 C        -9.3633778585        2.0989278011        2.6312104446
 C       -11.3022679508        4.2687409704       -3.5395786894
 C       -13.5006968161        2.9876033360       -3.5282677898
 C        -8.7417174448       -2.5396063943       -2.0350688940
 C        -7.9055354131       -1.4894846604        0.2012176870
 C        -2.5110439838        0.4843889476       -3.1082673542
 C        -2.9595389382        1.7509703206       -5.2617628115
 H        -2.5561503279       -1.8111481439       -7.1799623880
 H        -2.3659548048       -0.0419736382       -7.5955697009
 H        -3.7455007898       -0.8245876051       -6.9390507726
 H        -4.0158019329       -1.7074233528       -2.7903591317
 H        -4.4215240963       -2.3718647902       -4.2569986661
 H        -6.2335545088       -2.9876582105       -2.9071329885
 H        -6.8337107035       -1.8246839614       -4.0655107991
 H       -10.1335970995       -0.3304660780       -3.2573107084
 H        -8.5410986086        0.0967568497       -3.9028301326
 H        -9.8623723651        1.9666432741       -4.4245743070
 H        -9.2400226568        2.4676686574       -2.7564561521
 H       -13.1606439861        1.8988155631       -0.6560429516
 H       -13.6209076988        3.2240944506        0.3297072304
 H       -10.5970168684        2.6084033462        0.2726850076
 H       -11.6542682759        1.4005889467        0.8643868458
 H        -8.0006403266        4.6751087906        4.2908387918
 H        -9.4214726320        4.6791201722        5.2834067178
 H        -9.0170579599        7.0987254010        3.6901770679
 H        -8.2045005344        6.8797191803        5.2502606354
 H       -13.6852273455        8.4439462029        4.9304551551
 H       -13.1333179905        6.7005788838        4.7794833424
 H       -15.2494299466        6.9691021339        3.6514710042
 H       -13.9623575590        6.4088462823        2.6689637663
 H       -15.1087699300       10.3740438322       -0.4705571796
 H       -13.5509518264       10.1472741353       -1.5221876504
 H       -13.4070295240       10.5285536356        0.1383456682
 H       -15.9891884648        6.0012613399        1.3410883104
 H       -14.3363791974        5.9001616158        0.8526231111
 H       -15.5448475674        5.9226878351       -0.2600893799
 H       -17.3627005367        7.8864448355       -0.3189378228
 H       -16.8148506056        9.3762725586        0.2125567884
 H       -17.3436740925        8.2425901560        1.4027807511
 H       -12.0856172279       10.3643900181        5.4959244208
 H       -10.5501413037        9.9038348649        6.3258172557
 H       -12.0976096944        9.0770106293        6.6133530721
 H        -9.6668158184        9.1201147107        2.9481168353
 H        -8.9552592274        9.7706551705        4.4616758216
 H       -10.3253090187       10.5259423700        3.9139676618
 H       -11.5087583154        1.7063448701        4.0642430223
 H       -11.6537284786        3.3506473285        4.7347094632
 H       -10.1209535538        2.4108870633        4.9222311755
 H        -8.7994920301        2.3843488415        1.7738108165
 H        -9.8528495320        1.1195995594        2.4334085184
 H        -8.6014778584        1.8694959454        3.4630642726
 H       -11.7462027244        5.3145076712       -3.3875308640
 H       -11.2835013657        4.0745304732       -4.6281964341
 H       -10.3175573663        4.5089829024       -3.1661221261
 H       -13.7724812383        3.9160532495       -3.8591886846
 H       -14.1668501327        2.4124735828       -2.8506704050
 H       -13.3899017674        2.3419189271       -4.4360691185
 H        -8.0598864028       -3.3630799962       -1.8941451449
 H        -8.8877094441       -2.2546457299       -3.0568997420
 H        -9.6224443778       -2.9019550023       -1.4879134963
 H        -8.7301094650       -2.0998923588        0.5333111003
 H        -7.9456306974       -0.6460191832        0.8306237233
 H        -6.9498176682       -2.0202861622        0.3588722272
 H        -1.7170762652        1.1705135905       -2.9630319127
 H        -2.1968301081       -0.5069633794       -2.7950311378
 H        -3.2617279099        0.8529738217       -2.4485776923
 H        -3.3576962504        2.5864739272       -4.6513914745
 H        -3.3414990319        1.7742343824       -6.2695886566
 H        -1.8588771913        1.9023076828       -5.4288797155
 Na      -12.0683537411        6.0433162546        0.8920412333
