117

 C        -2.7163347193       -0.9229065540       -6.8006924843
 C        -2.2568754222       -0.7639064716       -5.3606074815
 O        -1.2713138610       -1.2957866703       -4.9519869717
 C        -3.1101891916        0.2870845541       -4.4831313120
 C        -4.5675617626       -0.2651464257       -4.3537323517
 O        -5.5008488000        0.4014124493       -4.8237020009
 C        -4.7565588754       -1.5679726178       -3.7014872088
 C        -6.1594578996       -1.7908557860       -3.1319583687
 C        -6.5765706427       -0.9522863465       -1.9335714360
 O        -5.9041560056       -0.0940814972       -1.4644165105
 C        -8.1010447326       -1.3156729878       -1.3551585275
 C        -9.0743782157       -0.0093577170       -1.6215238706
 O        -9.4189473025        0.7007892359       -0.6955482334
 C        -9.3772269227        0.3562356782       -3.0998601069
 C        -9.9154332702        1.7569952212       -3.1755889641
 C       -11.3345854650        1.8733169208       -2.6415101141
 O       -11.8855623228        0.9239350523       -2.1698176314
 C       -11.9734444639        3.2895029898       -2.7659125192
 C       -12.3249436479        3.7602593279       -1.3505651696
 O       -12.2992832560        4.9637439705       -1.1531464512
 C       -12.6845132820        2.7819925143       -0.2094092022
 C       -11.4922200129        2.5085149126        0.6925296563
 C       -11.4998213452        3.3894047973        1.9942654257
 O       -12.3382261401        4.1876525287        2.2504591534
 C       -10.3605040072        3.1613139240        3.0160739065
 C        -9.7751231963        4.6387000862        3.0767380249
 O        -9.9587547076        5.4445604841        2.1589309201
 C        -8.9954322830        5.1130863378        4.3036980021
 C        -9.0130862751        6.5917230393        4.4899554491
 C       -10.1901546410        7.1703030983        5.2428173760
 O       -10.6778400727        6.5662115223        6.1676877247
 C       -10.8311081545        8.5630014041        4.7018151892
 C       -11.9118704452        8.1008947471        3.6987626848
 O       -11.6019851636        7.8984181317        2.5435187150
 C       -13.4136299524        7.7435562360        4.2328119881
 C       -14.5285648065        7.3303805581        3.1807766364
 C       -14.7474477316        8.3584910396        2.1182386893
 O       -14.5348522664        9.5352282507        2.2897710343
 C       -15.2535171767        7.8847625957        0.7009902821
 C       -14.0576137708        8.4399905617       -0.1468832366
 O       -13.0790059112        7.7305862138       -0.3203617021
 C       -14.0870945601        9.8807000975       -0.6552711591
 C       -15.3698667128        6.2903948676        0.5331619074
 C       -16.5773082046        8.4617864204        0.2490741594
 C       -11.3871587394        9.3459934466        5.8266254303
 C        -9.8117625059        9.3815081852        3.9582930034
 C       -10.9258586464        2.5958169863        4.4170746652
 C        -9.3086092508        2.1239173791        2.4914666738
 C       -11.1453254437        4.3210479045       -3.5571783197
 C       -13.3370765428        3.0533132361       -3.4740640999
 C        -8.6858392630       -2.5262964469       -2.0499605034
 C        -8.0717333156       -1.5379917338        0.1487570786
 C        -2.5046610203        0.5012112896       -3.0777966897
 C        -3.2236613251        1.6363583657       -5.2133776988
 H        -2.5328896637       -1.9263363944       -7.2537491215
 H        -2.3039640820       -0.0846293598       -7.3883416431
 H        -3.8185039476       -0.8629079622       -6.8872581826
 H        -4.0084860445       -1.7359067454       -2.9332560057
 H        -4.6183530574       -2.4917079146       -4.3863706450
 H        -6.2548853313       -2.8222262752       -2.8197219858
 H        -6.8493780689       -1.6906141079       -3.9916223798
 H       -10.0228420711       -0.3713532882       -3.5368505183
 H        -8.4269685748        0.3874875720       -3.6927374846
 H        -9.8940525358        2.0727019137       -4.2431397014
 H        -9.3265745701        2.4263205729       -2.5503776311
 H       -13.0567068749        1.8334978695       -0.6161287962
 H       -13.5438387426        3.1865325768        0.3375088838
 H       -10.5421291887        2.7256928138        0.2401725584
 H       -11.4059635772        1.4609312074        0.9199592896
 H        -7.9419757531        4.7738427088        4.1392391559
 H        -9.3570111306        4.6355958725        5.2198838862
 H        -8.9016493787        7.0982158563        3.4993719953
 H        -8.1915080094        6.8505347882        5.1358957607
 H       -13.8315592474        8.6718277068        4.7096406417
 H       -13.4226444515        6.8627555833        4.9475599218
 H       -15.4904044249        7.2196953359        3.6956893850
 H       -14.3472580528        6.3121147314        2.7153017221
 H       -15.1316491160       10.0834834816       -0.9448338206
 H       -13.3282702302       10.0321245826       -1.3877384538
 H       -13.8136611176       10.6502671159        0.0930391263
 H       -15.9534620702        5.7115948595        1.1848537988
 H       -14.3704922170        5.8507267675        0.5436953285
 H       -15.6546664326        6.0126461854       -0.4546084011
 H       -16.9128725788        8.1766525566       -0.7398325783
 H       -16.5794499004        9.5027418321        0.1748010408
 H       -17.4640415036        8.2395733017        0.9285973553
 H       -12.3286046057        9.8523398077        5.6961080729
 H       -10.6770976243       10.0816147703        6.2076171950
 H       -11.6212949467        8.5685203279        6.6326921861
 H        -9.5263434278        8.9870018460        2.9799053282
 H        -8.9211846365        9.5522723614        4.5903250085
 H       -10.1502230361       10.4258163515        3.8535724791
 H       -11.3118932826        1.6056849583        4.1643010631
 H       -11.7186242375        3.2009137918        4.7240558030
 H       -10.1741059423        2.4955116926        5.1167300372
 H        -8.8109876321        2.4477150286        1.5273792788
 H        -9.7451323349        1.1147809189        2.3360309572
 H        -8.5234432582        1.9901444862        3.1895178654
 H       -11.5756217578        5.3286392115       -3.4033717134
 H       -10.9785998840        4.1335318460       -4.6200659112
 H       -10.1977009584        4.5658956893       -3.0646600926
 H       -13.5824972499        4.0263528334       -3.9606763533
 H       -14.0457930638        2.5164625014       -2.8747012935
 H       -13.0989849459        2.3663134547       -4.3080674336
 H        -8.1510748192       -3.4433775906       -1.7511456907
 H        -8.6290671260       -2.2752649681       -3.0900107954
 H        -9.6459599326       -2.6877701979       -1.7402820157
 H        -9.0573026469       -1.7778541414        0.5135508195
 H        -7.9062179359       -0.5555703214        0.5903740895
 H        -7.2818669884       -2.1897026684        0.5210905282
 H        -1.6355768999        1.1647915944       -3.0242587580
 H        -2.2859793121       -0.4429879644       -2.5880068667
 H        -3.2063980625        1.0385984795       -2.4990652170
 H        -3.6471736923        2.4399511188       -4.5260394844
 H        -3.7958985639        1.6485958481       -6.1127345328
 H        -2.2196563354        1.8978808659       -5.5027315342
 Na      -12.0844921896        6.0964686204        0.8169161949
