117

 C        -2.7691199436       -1.0893896166       -6.7013226654
 C        -2.3294543866       -0.6784701205       -5.3115640728
 O        -1.3290481373       -1.1082187968       -4.7644813262
 C        -3.2757629781        0.3487182632       -4.4683361279
 C        -4.6250952869       -0.3538341336       -4.3014630422
 O        -5.6297880258        0.1406451735       -4.7469367744
 C        -4.8270885926       -1.6578625582       -3.4763314913
 C        -6.2679922994       -1.8390874925       -3.0505443605
 C        -6.6899126523       -1.0880758936       -1.8416886223
 O        -6.0331478898       -0.2019601572       -1.3036089273
 C        -8.0890521487       -1.2911210411       -1.2654737922
 C        -8.9749241853       -0.0762974232       -1.5665867915
 O        -9.5461765243        0.5485430727       -0.6725444253
 C        -9.2887857358        0.3076966973       -3.0441984517
 C        -9.8857440424        1.7867159848       -3.2043417317
 C       -11.3001438797        1.8973306475       -2.6881650230
 O       -11.9176296885        0.9368245206       -2.2424417095
 C       -11.9433394273        3.3626110209       -2.6983020724
 C       -12.3425659527        3.9155803582       -1.2970307056
 O       -12.3511467686        5.1221797827       -1.1493805419
 C       -12.7509670514        2.9632334849       -0.1687816101
 C       -11.5111112582        2.5716432532        0.6203529034
 C       -11.4700939731        3.3052829876        1.9775672457
 O       -12.3867838036        4.1180457282        2.2832444116
 C       -10.2917343493        3.2155234482        3.0528131989
 C        -9.6860922471        4.6948740103        3.1044629104
 O        -9.8831038080        5.4837828248        2.2205706195
 C        -8.8783428906        5.0887069883        4.3101716935
 C        -8.8983334065        6.6697667403        4.3282115332
 C       -10.1358212955        7.1002650020        4.9777976049
 O       -10.5488340759        6.4373030236        5.8980065732
 C       -10.8168472270        8.4568604915        4.5543127231
 C       -12.0402894256        8.1335976314        3.6590628939
 O       -11.8243504236        7.7316250101        2.5185879855
 C       -13.3888216600        8.0570809082        4.2683939447
 C       -14.3533316090        7.2766955995        3.2670918401
 C       -14.7822553151        8.2764653974        2.0773935234
 O       -14.8338888279        9.4298730111        2.3917432960
 C       -15.2182457858        7.8488379264        0.6031859052
 C       -13.9131214142        8.2945604981       -0.2995383092
 O       -13.0254301169        7.5400490700       -0.5844531497
 C       -13.9852765145        9.7286667699       -0.9645165051
 C       -15.5376214776        6.3794949673        0.4707092552
 C       -16.4809200008        8.7203888776        0.2554021043
 C       -11.2845980031        9.1124496462        5.8289428367
 C        -9.8318777839        9.5010471760        3.7900050612
 C       -10.7953804141        2.6680349213        4.3614334769
 C        -9.0412284204        2.3931841596        2.4948127633
 C       -11.0076754307        4.3672959817       -3.3888348449
 C       -13.2570279227        3.1990969670       -3.5635197369
 C        -8.8387129921       -2.4444889374       -2.0431374068
 C        -8.0249118171       -1.5600519496        0.2726206670
 C        -2.5232937008        0.4537549069       -3.1382898718
 C        -3.3320427725        1.6714792731       -5.2473181779
 H        -2.2988288350       -2.0462168433       -6.9919752352
 H        -2.3895718651       -0.3278597900       -7.4483563158
 H        -3.8405053784       -1.2507025747       -6.8540325675
 H        -4.2361798581       -1.8901475914       -2.5553608050
 H        -4.5997320187       -2.4723641882       -4.1246071557
 H        -6.5194150879       -2.9117106920       -2.8818707309
 H        -6.8961304891       -1.5257781423       -3.8843773881
 H       -10.0231630159       -0.4471614985       -3.4449027012
 H        -8.3816998104        0.2690037854       -3.6232024519
 H        -9.9276816551        2.0327541529       -4.2481295599
 H        -9.3615622872        2.5851741374       -2.6642387584
 H       -13.3325952390        2.1369020269       -0.5729121467
 H       -13.5046938113        3.4846534013        0.4649672105
 H       -10.5361398873        2.7383988708        0.1006495895
 H       -11.4301866034        1.5064791587        0.9400545682
 H        -7.8160028819        4.8213299911        4.2314052397
 H        -9.3289273153        4.5541433241        5.1847894999
 H        -8.8345349475        7.0464546940        3.3131204381
 H        -8.0713512202        7.1483240112        4.9705146605
 H       -13.7985128817        9.0430645019        4.3923901236
 H       -13.4189444070        7.4940131521        5.1628805133
 H       -15.3128495187        7.1354616250        3.8036185985
 H       -13.9826813712        6.3240740391        2.9879386799
 H       -14.3787771155        9.6592175990       -1.9312139539
 H       -13.0521251168       10.2695617366       -0.7935291019
 H       -14.7263827833       10.2932358922       -0.4563579811
 H       -16.3289106587        6.0542431514        1.2241071202
 H       -14.7445160273        5.6275867219        0.5841707549
 H       -15.9503156737        6.1558683818       -0.5327743651
 H       -16.4314312299        9.1166565854       -0.7577539349
 H       -16.6109091765        9.6366509187        0.8617433251
 H       -17.4069601517        8.2658619217        0.2970071396
 H       -12.0451195602        9.8917895562        5.6044499360
 H       -10.4333028577        9.6445141112        6.2681792271
 H       -11.7127884792        8.4793415072        6.4728736492
 H        -9.5416090604        9.1926295918        2.7830825594
 H        -8.9336251295        9.6232342854        4.3592990740
 H       -10.2617773051       10.5098985131        3.7057658892
 H       -11.1612181545        1.6473169461        4.2754139806
 H       -11.6009569504        3.3499926135        4.6751354839
 H        -9.9556577486        2.6681086025        5.1101557830
 H        -8.6907309444        2.7066323250        1.5736875667
 H        -9.3307193113        1.3774784633        2.3254026766
 H        -8.1957976247        2.4492485360        3.2484385833
 H       -11.4384076830        5.3702109688       -3.4639761318
 H       -10.6677924701        3.9931923518       -4.3344024352
 H       -10.1132732907        4.5389480186       -2.8162511329
 H       -13.8237305806        4.0629885960       -3.4439414951
 H       -13.6623257953        2.2860246836       -3.0717095607
 H       -13.1342709427        2.9861710821       -4.6226845592
 H        -8.3579455401       -3.3866595144       -1.8705137117
 H        -8.9303811440       -2.2152670231       -3.1084684046
 H        -9.9048968159       -2.4454927262       -1.6076143412
 H        -8.9982987563       -1.2699543956        0.7064418039
 H        -7.2759322385       -0.9795918958        0.8217059027
 H        -7.7528981031       -2.6165882192        0.4202913224
 H        -1.5250986965        0.7786841823       -3.4252272461
 H        -2.4267263576       -0.4906527729       -2.5765842628
 H        -2.8255897392        1.2887574295       -2.4565538540
 H        -4.0625115333        2.2078567344       -4.7174734990
 H        -3.8412977578        1.6272788319       -6.2162960077
 H        -2.3910073460        2.2324546733       -5.3455658412
 Na      -11.9485877570        6.1644745348        1.0071938112
