117

 C        -2.8821816050       -1.1532958312       -6.5903665256
 C        -2.3826643027       -0.7425175662       -5.2013236769
 O        -1.3176481256       -1.1416370017       -4.7919943078
 C        -3.3179505337        0.3289571875       -4.3837870468
 C        -4.7347572066       -0.3905636742       -4.1813115396
 O        -5.7092286513        0.0205329182       -4.7914238184
 C        -4.7577071848       -1.5184793369       -3.2604527090
 C        -6.1868477287       -2.1231548513       -2.9352113855
 C        -6.8861734393       -1.2208479467       -1.8456371934
 O        -6.1181537136       -0.4965395466       -1.2844473820
 C        -8.2899653090       -1.4408483168       -1.2493553329
 C        -9.1022374860       -0.0244615491       -1.4480044828
 O        -9.4739529046        0.6454915496       -0.5330165451
 C        -9.2440086730        0.3787038058       -2.8424199343
 C        -9.7463461198        1.7198640015       -3.1676752659
 C       -11.2527788949        1.9914826140       -2.7894931463
 O       -11.9207628794        1.0652492114       -2.4069205900
 C       -11.9457230883        3.3839487241       -2.7392952532
 C       -12.2285764316        3.8425941199       -1.2973461339
 O       -12.0043330220        5.0041570472       -0.9768437807
 C       -12.7300193869        2.8656397381       -0.2229242479
 C       -11.5824199902        2.4454555292        0.6872416134
 C       -11.5244505223        3.3502802487        2.0123111268
 O       -12.4946463681        3.9104250594        2.4106445640
 C       -10.1335282324        3.3327233284        2.8187781407
 C        -9.5522979604        4.7825919775        2.9365251375
 O        -9.9066945588        5.6278131452        2.0966720722
 C        -8.5268169503        5.2049466141        4.0589568747
 C        -8.5962941598        6.7385653378        4.4592139375
 C       -10.0673388490        7.2261196412        4.9013902816
 O       -10.6666721323        6.3580126602        5.4815583422
 C       -10.8034252449        8.5412990605        4.5838391114
 C       -12.0006479426        8.0187558232        3.6677070024
 O       -11.7165491588        7.8679047550        2.5164536637
 C       -13.4374712162        7.9062986435        4.0922915122
 C       -14.3478520234        7.3447280201        3.0304323620
 C       -14.8656688227        8.4226800973        2.0675854375
 O       -15.0381639077        9.5875963823        2.4872629300
 C       -15.2958926012        8.0304750592        0.5965600470
 C       -13.9321021995        8.3688928027       -0.3518364041
 O       -13.0691031350        7.4991355814       -0.3817890026
 C       -13.8774041916        9.6634249647       -1.1827834318
 C       -15.4084226493        6.4890291086        0.4982061193
 C       -16.5829665872        8.8065276051        0.2023645407
 C       -11.1640357506        9.2728739436        6.0138019748
 C       -10.0180711473        9.4127808418        3.6188935444
 C       -10.6811099575        2.8259459593        4.2379216639
 C        -8.9945287685        2.4360836826        2.3880704491
 C       -11.0077383076        4.5478158973       -3.3729652703
 C       -13.2377111729        3.3522017586       -3.5992485954
 C        -9.1142531366       -2.6491096502       -1.6807021947
 C        -8.0983864614       -1.6668844318        0.2774839767
 C        -2.7048037310        0.7336577979       -3.0372287755
 C        -3.5078748198        1.5988728268       -5.2353647212
 H        -2.2917771159       -1.9876507769       -6.9763343921
 H        -2.6921735293       -0.4474395490       -7.3172602092
 H        -3.9579992795       -1.3833815073       -6.5544139405
 H        -4.4162418778       -1.2781861445       -2.2957041687
 H        -4.0338930190       -2.2382586362       -3.6868736811
 H        -6.1521502106       -3.1113046339       -2.5022296287
 H        -6.7380033541       -2.2242254500       -3.8774085429
 H        -9.8302800311       -0.3960969563       -3.2865715111
 H        -8.2344034723        0.3918825536       -3.3206927836
 H        -9.6290750716        1.8441523784       -4.2769918798
 H        -9.1224516593        2.4939313104       -2.6818596117
 H       -13.2247305898        1.9939424992       -0.6811919684
 H       -13.5428787166        3.3058429161        0.2979218608
 H       -10.6286720149        2.4794543087        0.1978326966
 H       -11.6376504981        1.4216081936        1.0262617243
 H        -7.5140488198        5.1691898586        3.6539913827
 H        -8.5833603410        4.5666697156        4.8900806068
 H        -8.2851714343        7.3615259540        3.6141532221
 H        -7.9512595033        6.9101329794        5.2569484448
 H       -13.8710558306        8.8856164702        4.3440869501
 H       -13.5786435181        7.1688208329        4.9171416369
 H       -15.2482046795        6.9293166371        3.4634580084
 H       -13.8041355487        6.5696890935        2.4385849855
 H       -13.4353276689        9.3641573893       -2.1919419541
 H       -13.2533058511       10.3468642684       -0.5943209277
 H       -14.8782311092       10.1168044306       -1.4306182488
 H       -16.0390993756        5.9989218476        1.1807967840
 H       -14.4612086357        6.0125053013        0.7150188973
 H       -15.6909587332        6.1501625084       -0.5022244550
 H       -17.0065183914        8.5320458610       -0.7710441447
 H       -16.6897492576        9.8803622809        0.2985148456
 H       -17.3941235047        8.4811868400        0.9324801270
 H       -11.2527376567       10.3252467812        5.9261880429
 H       -10.4390146598        9.0373952615        6.7896326462
 H       -12.2359328058        8.8655514664        6.3575576048
 H        -9.8747257996        8.9564294932        2.6475875362
 H        -9.0063466812        9.7653773720        3.9931418862
 H       -10.6479780741       10.2626507000        3.4275422988
 H       -11.1228559355        1.8476985292        4.0128885614
 H       -11.4458061329        3.5215599250        4.6596588541
 H        -9.8480105322        2.6544792381        4.9254468649
 H        -8.4733184970        2.8507474687        1.4461996505
 H        -9.2738836824        1.4162966305        2.0593961183
 H        -8.3183670263        2.4891715783        3.1829060105
 H       -11.5402258625        5.4995481666       -3.4031796028
 H       -10.6495030091        4.2587256868       -4.3917706641
 H       -10.0077879911        4.6641922113       -2.8378654539
 H       -13.9660011559        4.2025864670       -3.3176525854
 H       -13.6863756951        2.3951566033       -3.4899356529
 H       -12.8781261311        3.4737406092       -4.5965689880
 H        -8.4627710958       -3.5575744853       -1.5407156567
 H        -9.4701636061       -2.6014517552       -2.7379044779
 H        -9.9829890352       -2.6097867623       -1.0773173316
 H        -9.0214529614       -1.3647583661        0.7569008038
 H        -7.2756885631       -1.0658633144        0.6856150295
 H        -7.8536316259       -2.6847739707        0.4994630381
 H        -1.7936824583        1.3234340773       -3.0000380335
 H        -2.5973978951       -0.0944968290       -2.3648724144
 H        -3.4594502735        1.3638414388       -2.6024857819
 H        -4.3542289812        2.3032767259       -5.0483903281
 H        -3.7410273856        1.3599687117       -6.2727040037
 H        -2.5482510004        2.0727729115       -5.2269219355
 Na      -11.8881111545        5.9264953267        1.0406799101
