117

 C        -2.9832865377       -1.1609473148       -6.4829211573
 C        -2.4136060766       -0.6693619436       -5.1381500750
 O        -1.3693511865       -1.1108914728       -4.6745368686
 C        -3.3429189433        0.3113537978       -4.3864373366
 C        -4.7539743468       -0.4015476691       -4.2056189063
 O        -5.7086187192       -0.0197000032       -4.7883073454
 C        -4.8213233915       -1.6277052819       -3.1761539749
 C        -6.2197462983       -2.2175582714       -2.8593165527
 C        -6.8701900953       -1.3531247536       -1.7102843169
 O        -6.2302468167       -0.4353926538       -1.2091703192
 C        -8.3547443087       -1.4915267700       -1.1433839504
 C        -9.0261491181       -0.1144995151       -1.3837992578
 O        -9.3464328422        0.5824817811       -0.4444089759
 C        -9.2154172140        0.3720236744       -2.9803423737
 C        -9.7491792916        1.8539784533       -3.1259245268
 C       -11.2134325974        1.9999451462       -2.7744075057
 O       -11.9913449671        1.0841687612       -2.4928547340
 C       -11.8418479657        3.4353395817       -2.8427082513
 C       -12.0903443886        3.7816006548       -1.3055535026
 O       -11.7756345425        4.8744642572       -0.8821457990
 C       -12.6608402355        2.7433624936       -0.2292881399
 C       -11.5469337708        2.3862885001        0.7592251257
 C       -11.4340703028        3.3281230047        2.0108756909
 O       -12.4450251226        3.9505437790        2.3592213136
 C       -10.0809732195        3.3600754660        2.8282604215
 C        -9.5798735749        4.9008364626        2.9179950712
 O        -9.8945379736        5.6945573098        2.0507269689
 C        -8.5029992620        5.3404152298        3.8878112508
 C        -8.6183010360        6.7973801124        4.4275841876
 C       -10.1476035259        7.0845895065        4.8200118303
 O       -10.7863862437        6.2303064281        5.3968755977
 C       -10.7609466665        8.5354318185        4.4705861812
 C       -11.9881962035        8.1315160990        3.6059841509
 O       -11.6384805012        7.8168271375        2.4861008231
 C       -13.3741786507        7.8128496794        4.1796920366
 C       -14.4045878895        7.3597468580        3.0785362715
 C       -14.9112902165        8.5089674082        2.1164228837
 O       -15.0230971792        9.6525562681        2.4722096224
 C       -15.2734029650        8.0824858318        0.5784982474
 C       -14.0014724685        8.3979889103       -0.2494750049
 O       -13.0787363562        7.6250461379       -0.2176084480
 C       -13.9622369767        9.5454072562       -1.1797635442
 C       -15.4868223355        6.5949394442        0.4289851525
 C       -16.5362745533        8.7471756991        0.0175734285
 C       -11.1371430217        9.1628053398        5.8529280088
 C        -9.8215631375        9.5277919247        3.6890525136
 C       -10.5973243192        2.9873607141        4.2977328376
 C        -9.0586646407        2.4489854875        2.1708670125
 C       -10.9542907218        4.5696739742       -3.4540834590
 C       -13.2002688741        3.3835039553       -3.5594931464
 C        -9.1889468975       -2.6705039946       -1.7151238018
 C        -8.1686311244       -1.6258571564        0.4175318254
 C        -2.7785652651        0.7419171124       -3.0411554059
 C        -3.6193771112        1.5587811530       -5.3195557787
 H        -2.4381530241       -1.9819076077       -6.9707746855
 H        -2.8160550327       -0.4238468880       -7.2651583533
 H        -4.0924430346       -1.3174543712       -6.3512039862
 H        -4.3957168589       -1.4380278119       -2.1414925644
 H        -4.2047698133       -2.4617562967       -3.6268754422
 H        -6.1757707801       -3.2897592511       -2.5991443945
 H        -6.7966493127       -2.1630524705       -3.7792278898
 H        -9.9656317549       -0.3209270612       -3.4447636052
 H        -8.2948841551        0.3286890237       -3.4976947490
 H        -9.6800169100        2.3162911911       -4.0866579688
 H        -9.2079635630        2.5445831834       -2.3961990000
 H       -13.0129487697        1.7747620083       -0.6961152214
 H       -13.5642793196        3.0859198249        0.2242947143
 H       -10.6005922932        2.2168710248        0.2978970977
 H       -11.8019342521        1.4195725136        1.2075196676
 H        -7.4977707086        5.1700593179        3.4016802504
 H        -8.5507832451        4.7210040109        4.7755169941
 H        -8.4096947512        7.5905715810        3.7435067669
 H        -7.9583337009        6.9298023921        5.3192315814
 H       -13.8750988631        8.6721896602        4.7071352397
 H       -13.2491195528        6.9078850312        4.8447445589
 H       -15.3686830019        6.9446307641        3.4762100726
 H       -13.9099969822        6.6180659781        2.4446676653
 H       -13.1142858635        9.3364461875       -1.8822019632
 H       -13.7298245529       10.4096354396       -0.4865030963
 H       -14.8387959259        9.7172240864       -1.7852175066
 H       -16.0815225842        6.1642740977        1.2019569404
 H       -14.6346965637        6.0191052490        0.4922980156
 H       -15.9917320564        6.3840081101       -0.5130071618
 H       -17.1062542525        8.2021341744       -0.7195280200
 H       -16.4671051995        9.8329117239       -0.3320439597
 H       -17.2079497442        8.9192293843        0.8062073372
 H       -11.1891703354       10.2739313773        5.6826860181
 H       -10.4533970050        8.9415546618        6.7123670313
 H       -12.1027257661        8.8645296414        6.1256007267
 H        -9.3220550830        9.0841519549        2.8123860518
 H        -9.0125814766        9.9202901726        4.3633247428
 H       -10.4244901435       10.3407916493        3.2955971007
 H       -10.9864916380        2.0419736512        4.2509334668
 H       -11.3469128388        3.6948669934        4.6356776607
 H        -9.7551629722        2.9657970752        4.9818944664
 H        -8.8013262429        2.9080039563        1.2183721414
 H        -9.4253031141        1.4755787734        1.8544389755
 H        -8.1402675126        2.4075251409        2.7796673344
 H       -11.5468119031        5.4694474881       -3.4756154305
 H       -10.6296371346        4.3274459498       -4.4989757858
 H        -9.9656160248        4.7015506581       -2.9492503645
 H       -13.8655479160        4.2599901403       -3.3838829190
 H       -13.6759390535        2.4552509049       -3.1311523062
 H       -12.9565360307        3.2454051574       -4.6102296472
 H        -8.5796675453       -3.5024068363       -1.5942740580
 H        -9.3998185509       -2.6050508309       -2.7610043787
 H       -10.1753638720       -2.7106514141       -1.2033271989
 H        -9.1566781830       -1.6303904899        0.8953090018
 H        -7.5591810341       -0.8016575134        0.8092299275
 H        -7.6568608091       -2.5283546940        0.6592039995
 H        -1.9732699465        1.4162014397       -3.2283731845
 H        -2.3843499427       -0.0605872667       -2.4772003331
 H        -3.4932955682        1.2832482248       -2.3984982570
 H        -4.3498481847        2.2476212926       -4.9898858837
 H        -4.1010583955        1.2098149883       -6.2720872747
 H        -2.6889446558        2.0758118252       -5.5587577174
 Na      -11.9734661560        5.8992999651        1.0430853519
