117

 C        -4.2816951911        1.2425102796       10.4647546403
 C        -4.5135310640        2.3148134299        9.3575330638
 O        -5.3255532330        3.2349746027        9.3479937038
 C        -3.5041134158        2.1200557045        8.0264557678
 C        -4.4529988388        1.5497154688        7.0152142069
 O        -4.2951712003        0.4630147406        6.5405615574
 C        -5.6860274933        2.4378386582        6.5158443913
 C        -6.5803865133        1.6471238222        5.6118885518
 C        -7.8473962429        2.4208319016        5.0999452835
 O        -8.1071024725        3.5073290706        5.5871017448
 C        -8.6127140897        1.9102364492        3.8212140089
 C        -9.8119710206        2.9252263619        3.6312574378
 O       -10.9506410294        2.5918889801        3.8505045386
 C        -9.4414647412        4.3110699270        3.0200480185
 C       -10.5077835218        5.3480587230        2.9426009508
 C       -11.1620334845        5.5138707640        1.5388627296
 O       -10.4710262244        5.2729842610        0.5771447314
 C       -12.5628281148        6.2098340221        1.4133805733
 C       -13.3307237570        5.8812614839       -0.0123286970
 O       -12.8025283468        6.3114712995       -1.0694245861
 C       -14.5663988928        5.0189063312        0.0375499650
 C       -14.4234340308        3.8850164596       -1.0212606100
 C       -13.5372879492        2.6997624570       -0.6053905476
 O       -13.2658583406        2.5881593095        0.5568781548
 C       -13.0633595570        1.4815148252       -1.6049562178
 C       -12.3544574499        2.1808178065       -2.8534139659
 O       -11.9692187431        3.3236845020       -2.6326690033
 C       -12.0999459542        1.4794611176       -4.2020579650
 C       -11.3877967543        2.3542647709       -5.2729700092
 C       -12.1963440822        2.6182213838       -6.6546523470
 O       -13.2787690116        2.1897441219       -6.6405538085
 C       -11.5338237678        3.2832721407       -8.0098382398
 C       -10.6199186981        4.3567788600       -7.3186939087
 O        -9.5182783167        3.9645584430       -6.9505655277
 C       -11.0625297060        5.7654945733       -7.1401496595
 C       -10.4404946431        6.6497107617       -6.0697218939
 C       -10.0645579118        6.0134336970       -4.7358363672
 O       -10.8101400461        5.5462698881       -3.9786236363
 C        -8.4208369173        6.0965374873       -4.3005059079
 C        -8.0890898826        4.7537902096       -3.5299576924
 O        -8.4798551745        4.7039259276       -2.3716528227
 C        -7.4494687874        3.5616510231       -4.2557862298
 C        -7.5325603496        6.1615035271       -5.5636456482
 C        -8.3963630432        7.3954925639       -3.4247055993
 C       -10.6576222957        2.2135236994       -8.6514890347
 C       -12.5881272867        3.7977434916       -9.0170336257
 C       -11.9447288212        0.7207926025       -0.8691414612
 C       -14.2199558193        0.5045730431       -1.9610001777
 C       -13.4152917436        5.7447286530        2.5763019239
 C       -12.1477460327        7.7574725674        1.3727898447
 C        -7.6195586621        2.0222983356        2.5923188098
 C        -9.3305237090        0.6046291929        4.1462112280
 C        -2.9327124293        3.5322730203        7.7228837001
 C        -2.3648301336        1.0609482262        8.2718956330
 H        -4.4751104286        0.2434145961       10.0000378553
 H        -4.8851690274        1.2820841962       11.3079498550
 H        -3.1936057685        1.0945631726       10.8155036711
 H        -5.3123921085        3.3777574273        6.0554923327
 H        -6.2985568671        2.8185119052        7.4145844707
 H        -6.8528136134        0.6443577342        6.0136913219
 H        -6.0068570340        1.4433429182        4.6435453217
 H        -9.1083447427        4.1068294590        1.9710250556
 H        -8.5253761089        4.6800978188        3.5583371369
 H       -10.1381456055        6.3378951242        3.1071605446
 H       -11.2692102200        5.2457173800        3.7247057292
 H       -15.4592503159        5.6199181176       -0.0799715482
 H       -14.7443840602        4.5601480782        1.0271343355
 H       -14.0022538792        4.2885748988       -1.9443237658
 H       -15.3087406355        3.4842802626       -1.4521986278
 H       -12.9274755725        0.9841737750       -4.6070049751
 H       -11.4541926849        0.6273927960       -3.9120898832
 H       -10.4982503603        1.8379530628       -5.5105341531
 H       -11.1678345476        3.3333457028       -5.0016845242
 H       -12.1736635644        5.7552726430       -6.9118142374
 H       -10.9502964803        6.2613788549       -8.1276080790
 H       -11.1954294887        7.4961056236       -5.9679274796
 H        -9.5725828611        7.2367969408       -6.4508015290
 H        -8.0499684871        2.7142993082       -4.1920880269
 H        -6.4460764432        3.2610230727       -3.8523999698
 H        -7.2490965753        3.7167668043       -5.2852962663
 H        -7.3616360910        7.1596651934       -5.7962870766
 H        -7.8508697159        5.5828972793       -6.4709656115
 H        -6.4847730109        5.8326282376       -5.3698941053
 H        -9.3130716452        7.1965952295       -2.8236040386
 H        -8.4179456091        8.3367096217       -3.9957084355
 H        -7.5119009755        7.4239874665       -2.6630044234
 H       -11.0951363534        1.2535054915       -8.8654160229
 H        -9.8605440611        2.0298362120       -7.9634644685
 H       -10.1303230960        2.5819858120       -9.5158178594
 H       -13.1302926516        3.0934340815       -9.5671480531
 H       -12.0772081553        4.5429670839       -9.6447521817
 H       -13.2974546975        4.3810796920       -8.4279467493
 H       -12.2559275533        0.3745646942        0.1192386705
 H       -11.2359660806        1.4372012189       -0.5559943274
 H       -11.4567482270       -0.0544578403       -1.4173012656
 H       -14.6584454915        0.0731088441       -1.0550739270
 H       -13.8199849802       -0.3956151097       -2.5242138173
 H       -14.9735109923        0.8393922550       -2.7387303674
 H       -14.3978389900        6.1993306520        2.5895116712
 H       -13.0427666438        5.9738160467        3.6796453698
 H       -13.4621393753        4.6938126433        2.5542108158
 H       -11.3681844971        8.0506529549        0.6846730171
 H       -11.7735076201        8.0011991648        2.3830371591
 H       -13.0568789409        8.3133746339        1.2319646588
 H        -6.8006295681        1.2950620592        2.6233904992
 H        -7.1861363061        3.0003333573        2.6465562249
 H        -8.2079203204        1.9158572958        1.6445300178
 H       -10.0250116770        0.5938468679        4.9582571489
 H        -8.7437906871       -0.2908165874        4.2696909298
 H        -9.9168363197        0.3748085378        3.2881585782
 H        -3.7671676614        4.0679112967        7.4037885693
 H        -2.1540685613        3.5283313399        7.0405540057
 H        -2.6073712009        4.0554168460        8.6529202908
 H        -2.7170505830        0.0843080952        8.3022732863
 H        -1.8089774954        1.3384619506        9.0975771141
 H        -1.6354064643        1.2529980175        7.4975785259
 Na      -10.8716676943        5.2007426706       -1.6705589644
