117

 C        -2.9264864362       -1.3139724434       -6.4311422064
 C        -2.6094206290       -0.7619817084       -5.0368435022
 O        -1.5526157529       -1.0412624000       -4.5359517735
 C        -3.5914526726        0.2767176436       -4.3186416801
 C        -4.9472648773       -0.4913151989       -4.0015324192
 O        -5.9802495570       -0.2770882581       -4.6611387363
 C        -4.8635582735       -1.7359344889       -3.1753312501
 C        -6.3448709025       -2.0970150527       -2.7190849907
 C        -6.8557649623       -1.1626150184       -1.5790896847
 O        -6.1900565083       -0.3504408034       -1.0174476277
 C        -8.3431674507       -1.4329531321       -1.1032483133
 C        -9.0316970059       -0.0223361073       -1.4305801393
 O        -9.2311997534        0.7068971378       -0.4478097632
 C        -9.2176533134        0.2697104843       -2.8832223677
 C        -9.5651882207        1.6950988752       -2.8993506682
 C       -11.1408937455        1.8801001993       -2.8364200953
 O       -11.8585513972        0.9139501356       -2.8426503937
 C       -11.7547880206        3.3722566978       -2.7488114611
 C       -11.8441942074        3.7702342285       -1.1985092026
 O       -11.2879868838        4.7971628559       -0.8316207776
 C       -12.5238697686        2.7809335675       -0.2868901604
 C       -11.6144782441        2.3368120488        0.9034421331
 C       -11.4507022720        3.4158304288        1.9251502855
 O       -12.4063348404        4.1336466649        2.1363031840
 C       -10.0799662282        3.4671980922        2.7442429060
 C        -9.5320329813        4.9419224558        2.6828117347
 O        -9.9020920574        5.8126757201        1.9030348871
 C        -8.5191094262        5.2955033180        3.7486722705
 C        -8.6347748948        6.7445286434        4.1743152290
 C       -10.1719719892        7.0234702907        4.6792969967
 O       -10.9085337593        6.1960479537        5.1431894499
 C       -10.7592946124        8.4599576920        4.4444062875
 C       -11.9179376260        8.0886423970        3.4227569571
 O       -11.6261653300        7.9645512406        2.2693373889
 C       -13.3013768265        7.9276643674        3.9994244969
 C       -14.4180988650        7.4050637934        3.1286708924
 C       -14.8922630254        8.4438406402        2.0632368293
 O       -14.9945357579        9.6463548261        2.3145168786
 C       -15.2733983443        8.0786252637        0.5657446916
 C       -14.0067632704        8.3878219438       -0.2110549899
 O       -12.9032210573        7.8305273683       -0.0604215662
 C       -13.9751952826        9.5291999603       -1.1858620040
 C       -15.7455291380        6.5972210740        0.5831370049
 C       -16.5183115722        8.9502138114        0.2432531862
 C       -11.3182308633        9.0537917120        5.7958313318
 C        -9.6695003551        9.4225679258        3.8592518475
 C       -10.3340966028        3.0426970573        4.2100630457
 C        -8.8253151987        2.6026174351        2.2815065542
 C       -10.8808379147        4.4440392984       -3.5015634873
 C       -13.2380221015        3.3500413441       -3.3326127779
 C        -9.0122667265       -2.6268705474       -1.8167570069
 C        -8.4132867724       -1.7968135689        0.4090339066
 C        -2.8872203816        0.7891874634       -3.0368371181
 C        -3.8667659599        1.4770741170       -5.2579516816
 H        -2.2698614788       -2.1484436205       -6.7081936450
 H        -2.5801028157       -0.6505068012       -7.2356035349
 H        -3.9979689367       -1.4671268794       -6.5537497937
 H        -4.2518454084       -1.4633549279       -2.3481212090
 H        -4.4479498465       -2.6155465082       -3.6549451993
 H        -6.4260372069       -3.1607330343       -2.4810736027
 H        -6.9442720909       -1.9755613845       -3.6478613823
 H       -10.0154218524       -0.3119040004       -3.3064000045
 H        -8.2289146694        0.0534548356       -3.3999893070
 H        -9.1973770100        2.3124666893       -3.7484700912
 H        -9.2002194286        2.1590810126       -2.0295032808
 H       -12.8919553279        1.9375619909       -0.8282045658
 H       -13.4797329569        3.2468837621        0.0969052644
 H       -10.5710660334        2.0235363215        0.6407917475
 H       -12.0942117520        1.4692062458        1.3933264327
 H        -7.5703272600        5.2100131414        3.2194088803
 H        -8.4611026399        4.6314871938        4.6275764128
 H        -8.4248215475        7.5058425284        3.3868240966
 H        -8.0540453966        7.0283477500        5.0483570906
 H       -13.6671271046        8.8524512146        4.3800442358
 H       -13.2263613524        7.2224327440        4.7983327829
 H       -15.3065006815        7.3125849737        3.7201023273
 H       -14.1381287511        6.4431758885        2.6858805210
 H       -12.9685631369        9.9436160049       -1.2465938623
 H       -14.6801871957       10.2782694909       -1.0329562846
 H       -14.1988237936        8.9830493396       -2.1278127498
 H       -16.5564416541        6.4233969574        1.3026703361
 H       -14.9604010350        5.9287812075        1.0490544900
 H       -16.0918906690        6.1995956319       -0.3654582056
 H       -16.8012214992        8.7744271819       -0.7814936682
 H       -16.3630077434        9.9690468078        0.3765833947
 H       -17.4292433428        8.7680426533        0.8687132208
 H       -12.0394152931        9.7907354010        5.6412650134
 H       -10.4927913592        9.4816845113        6.2776635607
 H       -11.6470124192        8.2084920194        6.5332146090
 H        -9.3690879622        9.2013746371        2.8455162349
 H        -8.7667680997        9.2944305035        4.4339278079
 H       -10.0249082021       10.4551592796        3.9327472995
 H       -10.9393962095        2.1011479873        4.2640213842
 H       -10.8752774388        3.8479778414        4.7160729501
 H        -9.4125568936        2.8928927319        4.7277569821
 H        -8.5788841179        2.6465175671        1.2037307521
 H        -9.0715593882        1.5730151012        2.4952196215
 H        -7.9751622237        2.8528215591        2.8461706047
 H       -11.3673044262        5.4110436382       -3.4406796424
 H       -10.7931266690        4.2196162043       -4.5423756591
 H        -9.8896048140        4.3991361948       -3.1138229583
 H       -13.5024394598        4.4289888939       -3.3837992978
 H       -13.9752744233        2.9608598119       -2.6865561162
 H       -13.1897638306        2.9519928224       -4.3427022643
 H        -8.5329224825       -3.6153512972       -1.5709888419
 H        -8.8940864763       -2.6110940161       -2.9065816692
 H       -10.0385955865       -2.6144326408       -1.6275190707
 H        -9.3703627789       -2.2348845377        0.7043671739
 H        -8.1305862800       -0.9294291148        1.0130904607
 H        -7.6649369031       -2.6022288621        0.6166727953
 H        -2.0886279164        1.5205697892       -3.3056858684
 H        -2.3299634485       -0.0886466532       -2.6208178307
 H        -3.4921533130        1.1513469432       -2.2153732518
 H        -4.1457379412        2.4076282021       -4.6716453479
 H        -4.6336742795        1.3110129558       -5.9646938420
 H        -2.9664597541        1.7585343190       -5.7776898476
 Na      -12.2393110986        6.0004975297        1.0753313844
