117

 C        -2.9195398501       -1.0813786176       -6.2334684964
 C        -3.0183380025       -0.8595681026       -4.7515363846
 O        -2.2698507185       -1.3639810263       -3.9625600375
 C        -4.2063559597        0.0131655301       -4.2011577803
 C        -5.2813927558       -0.8908058820       -3.5940949860
 O        -6.4471020343       -0.8657433725       -3.9344970861
 C        -4.8132472538       -2.0088277940       -2.5533497679
 C        -6.0346079033       -2.5799487116       -1.7379985253
 C        -6.8048396401       -1.5758436984       -0.8957362337
 O        -6.2423397913       -0.6776861528       -0.2566088692
 C        -8.4022847006       -1.6066166024       -0.8266352248
 C        -8.9477485912       -0.1129973390       -1.1532051087
 O        -9.3889004077        0.6469236704       -0.3288373360
 C        -8.8619434163        0.3469882072       -2.6329066000
 C        -9.4077273182        1.7443114999       -2.9999248280
 C       -10.9156002348        1.8316656255       -3.0296481517
 O       -11.6281563918        0.8907891688       -3.2281227174
 C       -11.5630845608        3.2800405723       -2.8456853236
 C       -11.7305823005        3.5687068259       -1.3488447672
 O       -11.3750018081        4.6677720772       -0.9582728340
 C       -12.5031638157        2.6111706252       -0.4143196921
 C       -11.6328388298        2.3911647876        0.8336693250
 C       -11.2789354862        3.6492835485        1.5617130389
 O       -12.1944294629        4.3984073619        1.6978924830
 C        -9.9522275790        3.8305424387        2.3505237161
 C        -9.3495316034        5.2881585927        2.3083573013
 O        -9.5848044682        6.0550419424        1.4000395745
 C        -8.3723943592        5.6912295219        3.3755371025
 C        -8.5160531009        7.0391225911        3.9997634698
 C        -9.8836741711        7.1232913927        4.6639373954
 O       -10.4277503286        6.1969498634        5.2782319864
 C       -10.5898822912        8.4637349252        4.4665423335
 C       -11.7717534533        8.1111768375        3.4262572110
 O       -11.4902231097        8.0615370688        2.2365191073
 C       -13.1732700256        7.8244841765        3.8844762689
 C       -14.1219053515        7.3871445457        2.8298354807
 C       -14.5137113655        8.5392754051        1.8578976143
 O       -14.3336979808        9.7231324170        2.0316830454
 C       -15.3740072929        8.1924280591        0.6338644043
 C       -14.3229759953        8.4276657207       -0.5212206539
 O       -13.4215453753        7.6198513841       -0.6468251741
 C       -14.1440537755        9.7679129033       -1.2176542963
 C       -16.0192305142        6.7762584768        0.6953600104
 C       -16.5821802885        9.1734266311        0.5841874646
 C       -11.2324590310        8.9180755107        5.8699903176
 C        -9.6387509027        9.6568435874        3.9900626889
 C       -10.3901823318        3.6745352639        3.8685329269
 C        -8.8895489850        2.7649418988        1.9090182096
 C       -10.7503634754        4.3599330996       -3.4699740580
 C       -13.1001137690        3.2686250815       -3.2707130569
 C        -9.0950594547       -2.5908527658       -1.8150055104
 C        -8.7015652615       -2.0114604543        0.6208299235
 C        -3.6550095736        0.9967379371       -3.1495345692
 C        -4.8506925400        0.8658610465       -5.3900263476
 H        -2.2378560592       -1.9107107656       -6.4917753742
 H        -2.8417653189       -0.1388946524       -6.8489020636
 H        -3.8788058483       -1.5058083537       -6.6226229036
 H        -4.1105526268       -1.5025131760       -1.8555463214
 H        -4.2817405428       -2.8480905658       -2.9926196678
 H        -5.4434271740       -3.2505563927       -1.0746507555
 H        -6.6226599902       -3.2959051119       -2.3198723816
 H        -9.1364180858       -0.3474632909       -3.4246681195
 H        -7.7827881801        0.4772693254       -2.7899674340
 H        -9.1371363273        1.9870408947       -4.0162972440
 H        -8.9394569162        2.5419573898       -2.4183039186
 H       -12.5717016869        1.5566505113       -0.8562262611
 H       -13.4558386282        3.0274978125       -0.1469859405
 H       -10.7617168082        1.8010063994        0.5803476199
 H       -12.2618314562        1.8169361655        1.5622652233
 H        -7.4078923300        5.6337906103        2.7641153249
 H        -8.3202633447        4.9360722458        4.1680925927
 H        -8.4783941032        7.8932633753        3.2951129263
 H        -7.7268776328        7.2777120430        4.8109837074
 H       -13.5440993397        8.6366347405        4.5026040120
 H       -13.0928340949        7.0607608635        4.6761144313
 H       -15.1128078022        7.0968369671        3.2116952074
 H       -13.7537689388        6.4975684285        2.2799206412
 H       -15.0251194391       10.0814802293       -1.7487039218
 H       -13.2713929987        9.7624301244       -1.9127224304
 H       -13.8008110798       10.4269417010       -0.4667928419
 H       -16.5666607081        6.6335396235        1.6231856522
 H       -15.2483319085        6.0989080093        0.5436803088
 H       -16.7081381679        6.6243650713       -0.1498483146
 H       -16.7165372105        9.3046860632       -0.5034235483
 H       -16.2682684465       10.1664872639        0.9542528525
 H       -17.4540813065        8.7570693510        0.9765193004
 H       -11.9651447617        9.7285302857        5.7567589193
 H       -10.4382723376        9.3404445649        6.4813618777
 H       -11.7381447770        8.0699536800        6.2894385482
 H        -9.2564167203        9.6362824920        2.9417104413
 H        -8.8458444064        9.7153987214        4.7528037321
 H       -10.2424495427       10.5590264530        4.0975601357
 H       -10.9485655543        2.8102058475        4.0848602527
 H       -10.9050794766        4.5142073425        4.2299193442
 H        -9.5021971841        3.5699576500        4.4769960945
 H        -8.5946017930        2.9356706343        0.9205069843
 H        -9.4000250234        1.8082823170        1.9355850951
 H        -7.9855989863        2.6672434599        2.5708412239
 H       -11.2905938191        5.2765206937       -3.3422540082
 H       -10.5359417047        4.0831665865       -4.5121269154
 H        -9.8677882998        4.5455082021       -2.8365289210
 H       -13.4733589033        4.2282579084       -3.5036075840
 H       -13.7180692572        2.7091569131       -2.4977287984
 H       -13.3380647890        2.6068135477       -4.1276745763
 H        -8.9849153589       -3.6139453613       -1.6359604579
 H        -8.9101826829       -2.4088095446       -2.8470632527
 H       -10.2196861669       -2.4243535120       -1.7508397918
 H        -9.7447573213       -1.7904230734        0.8233087698
 H        -8.1364579619       -1.3457700740        1.2572035794
 H        -8.3484422741       -3.0049785521        0.7720625382
 H        -2.9438077530        1.6236785058       -3.6412935394
 H        -3.1347766588        0.4791067520       -2.3803458650
 H        -4.4408757802        1.6730565000       -2.7982155548
 H        -5.7086315591        1.3644451112       -5.0566533094
 H        -5.2256082713        0.2255245658       -6.2381891596
 H        -4.0869937896        1.5246183924       -5.8325776696
 Na      -11.8225335860        6.3371866199        0.6165909002
