117

 C        -2.7188044010       -1.0304253778       -6.1928282146
 C        -3.0478917420       -0.9624338910       -4.7420410813
 O        -2.3620472608       -1.4853466466       -3.8926944585
 C        -4.3013790082       -0.1439917634       -4.2715125239
 C        -5.3471602320       -1.1627898037       -3.5961559542
 O        -6.3285865012       -1.4821396914       -4.1612106194
 C        -4.8657592792       -1.7956020286       -2.1937573517
 C        -6.0456722377       -2.5153606426       -1.5262628168
 C        -6.9662494403       -1.4844515294       -0.7944535842
 O        -6.4293819269       -0.4874663811       -0.3190716680
 C        -8.5940458190       -1.6308754142       -0.7428311886
 C        -9.0232466628       -0.1038272457       -1.0527879244
 O        -9.2287582852        0.6942475346       -0.1452670890
 C        -9.0217802816        0.3714351691       -2.4763839189
 C        -9.4985510741        1.8107162512       -2.5378301600
 C       -11.0033559478        1.7575139441       -2.8899999570
 O       -11.6957768655        0.7770563117       -2.8943075381
 C       -11.6728607737        3.2048525757       -3.0854707410
 C       -11.8265648068        3.7529536353       -1.6486941606
 O       -11.3438912654        4.8286823382       -1.3436015035
 C       -12.5669684808        2.8880625466       -0.6149202986
 C       -11.6876287050        2.6411171828        0.6515589496
 C       -11.4396184228        3.8089556204        1.6093942560
 O       -12.3246312227        4.5587509386        1.9279024747
 C       -10.0846203331        3.8871763331        2.4404545366
 C        -9.3962953563        5.3027672449        2.3302252120
 O        -9.6236563569        6.0236575654        1.3659255668
 C        -8.3175805842        5.6828961378        3.3531023108
 C        -8.3704659885        7.1499909781        3.8835711285
 C        -9.6224947048        7.4047883282        4.7324930169
 O       -10.0120969941        6.5410961273        5.5311974051
 C       -10.6007464412        8.6081510456        4.4032263674
 C       -11.7143613077        8.0331620360        3.4635323805
 O       -11.4294794544        7.9910332379        2.2943277637
 C       -13.0853120784        7.6568869466        3.9707102230
 C       -14.0807372183        7.2560618894        2.9013039090
 C       -14.4411104233        8.4635298762        2.0002491597
 O       -14.1325822717        9.5543590242        2.3706696504
 C       -15.2735567434        8.3059640823        0.5946317257
 C       -14.2583439927        8.4566688937       -0.5355573524
 O       -13.4895101483        7.5042487485       -0.6405731190
 C       -14.0284994827        9.6137815615       -1.5376858152
 C       -15.7894987343        6.7660019779        0.4485492453
 C       -16.5294520562        9.2585451658        0.5355686526
 C       -11.1312722395        9.0274774085        5.8430217366
 C        -9.9175157898        9.8707523930        3.7343365286
 C       -10.4267992788        3.4241662021        3.9163483306
 C        -8.8963760299        2.9099994307        1.9476470508
 C       -10.7298340511        4.0994928517       -3.8431546383
 C       -12.9641509857        2.9551845727       -3.8488031503
 C        -8.9847952623       -2.5508339936       -1.8638421575
 C        -8.9916710775       -2.0686555205        0.6469688643
 C        -3.7795912647        0.7932339360       -3.0896524165
 C        -4.9315668483        0.7114372562       -5.3886639167
 H        -1.9517425554       -1.6877031921       -6.4347389078
 H        -2.6544654402       -0.0639803763       -6.5754478556
 H        -3.5094291588       -1.5354017851       -6.7470998531
 H        -4.5480468607       -0.9772132752       -1.5297756070
 H        -3.8832585940       -2.3585070084       -2.3971460304
 H        -5.6096992151       -3.1823627792       -0.8061129437
 H        -6.5423503393       -3.1659644874       -2.2407631465
 H        -9.5420484723       -0.2618738321       -3.1588009446
 H        -7.9376838966        0.3639135498       -2.8489970124
 H        -8.9317138744        2.4312549606       -3.3191140858
 H        -9.3143270514        2.3125679684       -1.5866150808
 H       -12.9214297109        1.8948223994       -0.9161763805
 H       -13.3981426317        3.5260654165       -0.3523568288
 H       -10.7413232572        2.2326654337        0.3272791403
 H       -12.1359826854        1.8760438902        1.2717864116
 H        -7.3446519951        5.6243455894        2.8451749585
 H        -8.3065081575        4.9506730505        4.1302405059
 H        -8.4580756435        7.8855303925        3.0450615587
 H        -7.4438521720        7.2992100457        4.4341150736
 H       -13.5076589004        8.3808459900        4.6948917385
 H       -12.9601007619        6.8021103376        4.6850654404
 H       -15.0101376990        6.8809592308        3.2984093297
 H       -13.6766054296        6.4149568508        2.2756019546
 H       -14.8184619711        9.4174466321       -2.3145381896
 H       -12.9497417938        9.5252889584       -1.9398465977
 H       -14.1677447708       10.5967836390       -1.1146856183
 H       -16.4696292729        6.5628777682        1.2764333130
 H       -14.9167021161        6.1601458545        0.6540715493
 H       -16.2022454007        6.5202273500       -0.5866894138
 H       -16.9284929790        9.2331428062       -0.4805400435
 H       -16.1843649234       10.3117801092        0.9236813253
 H       -17.2158223114        8.8482153638        1.2640953916
 H       -11.3048853450       10.1386896173        5.8810149248
 H       -10.3226935512        8.8739589495        6.6097882561
 H       -11.9866864186        8.5251357737        6.1801329499
 H        -9.5552897419        9.7832700662        2.7359402153
 H        -9.1224136682       10.1177998845        4.4719213627
 H       -10.6416254329       10.6124188415        3.7449231769
 H       -10.8687056748        2.4379970931        3.9834745455
 H       -11.1709353714        4.1034668932        4.4473665967
 H        -9.5136853871        3.3968980432        4.6193086429
 H        -8.7051251040        2.9712546472        0.8698290883
 H        -9.2474422630        1.8650695417        2.1031810289
 H        -7.9745792249        3.1389903306        2.4794843147
 H       -11.1929915663        5.0441930197       -3.8655058086
 H       -10.6477135904        3.6491590987       -4.8414343376
 H        -9.7168503322        4.1035823562       -3.3754595906
 H       -13.6119339512        3.8196393373       -3.7698509573
 H       -13.5357824468        2.0705204213       -3.5179686345
 H       -12.8639351115        2.8419979719       -4.8975010038
 H        -8.6237290186       -3.5538622848       -1.7226518927
 H        -8.4643357445       -2.3418649948       -2.8180812174
 H       -10.0707225620       -2.5333759437       -2.1389496242
 H       -10.0860422230       -2.0808643979        0.6825865608
 H        -8.6224761057       -1.2815976294        1.3445100197
 H        -8.4497799193       -2.9682047089        0.8574418158
 H        -3.4081985934        1.7372759490       -3.5416105507
 H        -2.9110308103        0.3465795064       -2.6083131000
 H        -4.6183745443        1.0949828772       -2.4198762187
 H        -5.8739204358        1.0519396189       -4.9747660923
 H        -5.3779241578        0.0330986642       -6.1514984621
 H        -4.3000450060        1.5032984218       -5.7451386241
 Na      -11.7982577178        6.5317215161        0.6175094025
