117

 C        -2.7497520670       -0.9727942454       -6.1832617068
 C        -3.0644435433       -1.0197009754       -4.6900488937
 O        -2.3554643925       -1.5765707039       -3.8854962252
 C        -4.3613669520       -0.1873764277       -4.1687640183
 C        -5.2871704194       -1.1937136261       -3.5092997539
 O        -6.2504432543       -1.7077217935       -4.1209704504
 C        -4.9548189753       -1.7711462046       -2.1261859480
 C        -6.0924298388       -2.4658000549       -1.4606572429
 C        -6.9906295430       -1.4309815903       -0.7827580210
 O        -6.4532681015       -0.4702359612       -0.2959623254
 C        -8.5259027266       -1.6142045506       -0.7742572701
 C        -9.0177228299       -0.1347923371       -1.0061622850
 O        -9.2578372453        0.6009891627       -0.1036883051
 C        -9.0386882440        0.3057863059       -2.4891249546
 C        -9.5022010125        1.8011441692       -2.5304039061
 C       -10.9669931477        1.8178646838       -2.8367395209
 O       -11.6404789927        0.8047869032       -2.7343747722
 C       -11.6595690789        3.2018968600       -3.1734851122
 C       -11.9098743511        3.8741893838       -1.7224664118
 O       -11.3711924413        4.9664698422       -1.5231499228
 C       -12.6598487578        3.0931473808       -0.6174233761
 C       -11.6608347600        2.7249969281        0.4963446721
 C       -11.4648187511        3.7723909117        1.6870786499
 O       -12.2259212690        4.6619956505        1.8985628847
 C       -10.0975587380        3.8032139792        2.5037377265
 C        -9.4875210281        5.2862866329        2.3965917337
 O        -9.8673640311        5.9848499393        1.4837412364
 C        -8.3908448313        5.7720766737        3.4037324749
 C        -8.4547075266        7.2975306377        3.6611014670
 C        -9.7142925273        7.4257446977        4.6441257759
 O        -9.8079612216        6.6485372922        5.5610619498
 C       -10.6196227616        8.6571908723        4.4476229539
 C       -11.7455229006        8.0611132523        3.4400070306
 O       -11.4846094542        7.9029052048        2.2425005477
 C       -13.0474927643        7.6525659551        3.9926477816
 C       -14.0106956470        7.2077655941        2.8928332825
 C       -14.4275624293        8.4598205370        2.0270507401
 O       -14.1504765919        9.6004396244        2.4386088356
 C       -15.2538327116        8.2411290239        0.6539908064
 C       -14.1312901162        8.3678674460       -0.5891031356
 O       -13.2650856761        7.5094142362       -0.6643026180
 C       -14.0190442913        9.5278680627       -1.6000643197
 C       -15.7348706358        6.7933541414        0.5233559290
 C       -16.3895091493        9.2700422660        0.6780098841
 C       -11.1736928196        9.0988934932        5.7748307689
 C        -9.8889744261        9.7734690760        3.7729125749
 C       -10.3459516405        3.4607848179        3.9154612430
 C        -8.9738896540        2.8485302602        1.9229068656
 C       -10.7397938857        4.1769477064       -3.9723609625
 C       -12.9965671997        2.8686470501       -3.8380760458
 C        -9.0714596878       -2.5479425429       -1.8630469617
 C        -8.9721949907       -2.1369430204        0.6491433939
 C        -3.8176036296        0.8593817404       -3.0892266037
 C        -4.9474076783        0.5351770961       -5.3952549351
 H        -1.9036173801       -1.6187103731       -6.3621221442
 H        -2.6040079979        0.0672339480       -6.5859832984
 H        -3.4254404827       -1.4915786660       -6.7979186453
 H        -4.5935646785       -0.9060407477       -1.4441753683
 H        -4.0181856613       -2.3329706087       -2.3490666846
 H        -5.6790667762       -3.0984792064       -0.6502654410
 H        -6.5438742183       -3.1499189719       -2.1661622527
 H        -9.7186446893       -0.3335958550       -3.1039487346
 H        -8.0780273268        0.1486566627       -2.9928286964
 H        -9.0343135671        2.4615192232       -3.2578634493
 H        -9.3010055978        2.2770330063       -1.5453010513
 H       -13.0820322263        2.1050811429       -0.9861235546
 H       -13.4468434658        3.6485198617       -0.1601648095
 H       -10.7034405791        2.4860037187        0.0969245086
 H       -12.0125304507        1.8068044669        0.9777623188
 H        -7.3499516198        5.5331883753        3.0481363581
 H        -8.5434774382        5.1725987836        4.3225759040
 H        -8.5263085034        7.8548130291        2.7147358863
 H        -7.4762907020        7.5754820702        4.2473093407
 H       -13.5170444203        8.4769217440        4.5944588356
 H       -12.9324426122        6.8959615654        4.8336771845
 H       -14.9468917892        6.7432443522        3.3102820680
 H       -13.5817856046        6.4556974837        2.2034906198
 H       -14.9744676247        9.5620115537       -2.1808453244
 H       -13.0903293165        9.3913366208       -2.2082485632
 H       -13.9438420589       10.4977707144       -1.0437790154
 H       -16.5091729235        6.6274605041        1.3034734270
 H       -14.9386947022        6.1525745476        0.8083572525
 H       -16.0818767799        6.5818442935       -0.4930306133
 H       -16.6186345047        9.5207601972       -0.4117309006
 H       -16.0475268716       10.0772374457        1.2958183945
 H       -17.2506722250        8.8412212489        1.1975756106
 H       -11.8205079179        9.9579497968        5.7267297209
 H       -10.3790258034        9.3381721416        6.4616886437
 H       -11.7321408849        8.1489308883        6.2555067692
 H        -9.7974944835        9.4929089809        2.7109506015
 H        -8.9496000896        9.9511916670        4.1985231757
 H       -10.5598819553       10.6267665064        3.7922235661
 H       -10.7701816351        2.4699841612        4.1674310621
 H       -11.0214280765        4.1715672968        4.3522890387
 H        -9.4090772795        3.5439933340        4.4981295979
 H        -8.5286656690        3.2296255545        1.0455583123
 H        -9.4449804350        1.9101808097        1.6416479584
 H        -8.1286395321        2.6943849749        2.6992937715
 H       -11.4677811522        4.9301434839       -4.3098131616
 H       -10.3480199370        3.6376156936       -4.8452496327
 H        -9.9073355593        4.5300347854       -3.3744184629
 H       -13.8088386518        3.5106673259       -3.7081351453
 H       -13.3124351188        1.8169700302       -3.5044101461
 H       -12.9069170233        2.7720175869       -4.9482604985
 H        -8.4452441511       -3.3750005606       -1.9611653374
 H        -9.0742403418       -2.2693903637       -2.8718982258
 H       -10.1338679882       -2.8344879175       -1.6429369603
 H       -10.0378925151       -2.4081325063        0.5841976721
 H        -8.7663961233       -1.4077145370        1.4284334530
 H        -8.2987790752       -2.9856917379        0.7938916890
 H        -3.5115128091        1.6775018999       -3.7336549267
 H        -2.9234065790        0.5497905807       -2.5631805703
 H        -4.6241292343        1.2829715129       -2.4486919168
 H        -5.7133362620        1.1776115230       -5.0543018315
 H        -5.5539054681       -0.2035888961       -5.9502283242
 H        -4.1903724096        1.1597771721       -5.9519955854
 Na      -11.7386624449        6.5329721067        0.4376719739
