117

 C        -2.7297493550       -0.9978070538       -6.1165514788
 C        -3.0142363495       -1.0060511482       -4.6472236409
 O        -2.3793395384       -1.6850684425       -3.8578886199
 C        -4.3144270774       -0.1691024648       -4.1782235447
 C        -5.1938504832       -1.3357945131       -3.5017282907
 O        -6.1837889306       -1.7823823884       -4.1041960459
 C        -4.8740253787       -1.8116240896       -2.0690399762
 C        -6.0220906793       -2.4637898655       -1.3768249690
 C        -6.9318935418       -1.4223323716       -0.7794464080
 O        -6.5521625260       -0.4185261268       -0.2140252540
 C        -8.5138686588       -1.6720787904       -0.8308486683
 C        -9.0681394175       -0.2294728588       -0.9963937129
 O        -9.3567713846        0.5123243755       -0.0439083885
 C        -8.9552032449        0.3078550690       -2.4047156348
 C        -9.4024299602        1.7787261331       -2.6354348535
 C       -10.9334462350        1.8689859152       -2.7579849833
 O       -11.6294802784        0.8920135190       -2.5962428937
 C       -11.7295361130        3.2346209386       -3.1381548908
 C       -11.9449171283        3.9944655724       -1.7577599033
 O       -11.4777282891        5.1182339625       -1.5895719348
 C       -12.6374279344        3.3670856663       -0.6009172372
 C       -11.6026606862        2.8085865733        0.4579838228
 C       -11.3132951786        3.8281484652        1.5708913556
 O       -12.2339782951        4.6195176156        1.8357976426
 C       -10.0625422534        3.7618574754        2.5381846209
 C        -9.5409985286        5.2087625816        2.4141661262
 O        -9.8791324328        6.0455130606        1.5973200101
 C        -8.4260494763        5.6823963689        3.3265223164
 C        -8.6192530465        7.2153328856        3.4814461878
 C        -9.6003308401        7.4735379442        4.6182844672
 O        -9.7079376254        6.7818932124        5.5711198070
 C       -10.6779369819        8.6981666599        4.4173340387
 C       -11.7642857899        8.0990848331        3.4701557251
 O       -11.4228763460        7.9938244195        2.2854236715
 C       -13.1269981414        7.6361408609        4.0506544323
 C       -14.0471390293        7.2400061745        2.8918515483
 C       -14.3507684470        8.4422301863        2.0158277967
 O       -14.2152636303        9.5664245774        2.4042967044
 C       -15.0381751298        8.1911956383        0.6653757892
 C       -14.0157995307        8.3745618913       -0.4517136244
 O       -13.1797260692        7.5330721145       -0.7042832880
 C       -14.2312788542        9.4805675488       -1.4732689929
 C       -15.7178260012        6.8229742997        0.5662107247
 C       -16.1612030442        9.2974701086        0.6196644679
 C       -11.2955359605        9.1189818864        5.7578263384
 C        -9.8632642655        9.8591456283        3.6981838637
 C       -10.3888084757        3.4223108750        4.0311385309
 C        -9.0054512543        2.7847455333        1.9177329108
 C       -10.8610755828        4.1616611723       -4.1023513604
 C       -13.0625501047        2.9073399344       -3.8196798439
 C        -9.1741232952       -2.6453629728       -1.8212671915
 C        -8.9344658900       -2.1465045702        0.6312981018
 C        -3.8608276547        0.8985220328       -3.1919502606
 C        -5.1313297671        0.4109805623       -5.3027553097
 H        -1.8841094064       -1.7111545744       -6.3303027651
 H        -2.4748760253        0.0453554809       -6.4616636210
 H        -3.4786187893       -1.4446676203       -6.7828940953
 H        -4.4609717848       -0.9568712023       -1.5118828362
 H        -4.0135792210       -2.4048367536       -2.2873268099
 H        -5.7618629814       -3.2581425578       -0.6317079298
 H        -6.5573533437       -2.9635592508       -2.2099768854
 H        -9.6293942582       -0.3509444916       -3.0511837461
 H        -8.0093458553        0.0881137475       -2.8271771784
 H        -8.9779054323        2.2341224313       -3.4945999616
 H        -9.1135079166        2.4208466460       -1.7707491496
 H       -13.2225655301        2.5189759562       -0.9270477175
 H       -13.3278133000        4.0486454677       -0.0377665155
 H       -10.6613517283        2.4849565770       -0.0081248211
 H       -12.0125976663        1.9355696061        1.0067038275
 H        -7.4601095311        5.5622193709        2.7858506178
 H        -8.3601865167        5.0315683301        4.2514850749
 H        -9.0035736706        7.6128100584        2.5231091186
 H        -7.6244027707        7.6630486136        3.7150710294
 H       -13.6154662784        8.3837436287        4.6887582745
 H       -13.0485157238        6.8107334093        4.7642468137
 H       -15.0182954017        6.8028808378        3.2619127558
 H       -13.6250878285        6.4922802495        2.2431603327
 H       -15.2681237699        9.5959049391       -1.7854743417
 H       -13.5398208566        9.2622981648       -2.2343323475
 H       -13.9346783736       10.4653750042       -1.0098383324
 H       -16.3713294718        6.7929799088        1.4247692688
 H       -15.1029847065        5.9132686718        0.5983022211
 H       -16.2838174672        6.8911236304       -0.2995873128
 H       -16.3878096675        9.4720634626       -0.4131209115
 H       -15.8824890631       10.0876184196        1.2503654113
 H       -17.0419202137        8.8659727192        1.1399802066
 H       -12.2891297590        9.5721532163        5.6764034639
 H       -10.6579253547        9.8688588854        6.2316159764
 H       -11.3121077715        8.2662055089        6.4528910770
 H        -9.8510837316        9.5863340271        2.6372753859
 H        -8.8555823135        9.8672427731        4.0447591201
 H       -10.4011980101       10.8398647669        3.7853065902
 H       -10.8881164277        2.4591838295        4.1752949175
 H       -11.0596112436        4.1359912208        4.4379489429
 H        -9.5473673387        3.3910324512        4.6265556151
 H        -8.4742592857        3.2386661151        1.0581449535
 H        -9.4424876308        1.8631657388        1.5841901643
 H        -8.2634243556        2.6229863616        2.6777934201
 H       -11.6039906262        4.7608332032       -4.6815559652
 H       -10.3207646875        3.5279745774       -4.7936014001
 H       -10.1399839372        4.7000934092       -3.5313669403
 H       -13.9217236891        3.6326196037       -3.7980252193
 H       -13.4732608399        1.9422281990       -3.5506278726
 H       -12.8031108196        2.8192959574       -4.9064077049
 H        -8.6148004181       -3.5882685512       -1.8055998935
 H        -9.1161123892       -2.4456863280       -2.8641557192
 H       -10.1636824440       -2.7544074245       -1.5622617142
 H        -9.9718801114       -2.4697621094        0.6050923196
 H        -8.7152396357       -1.3860636559        1.3539941776
 H        -8.2608449357       -3.0046616213        0.8058045817
 H        -3.3480941911        1.7066475654       -3.7030307979
 H        -3.1791322725        0.4764834030       -2.4450163790
 H        -4.7436172948        1.3083861884       -2.7450605005
 H        -5.8532064787        1.1849070639       -4.9262338965
 H        -5.7270850040       -0.3460443079       -5.7597413124
 H        -4.4292591340        0.9691674561       -5.9453740495
 Na      -11.6806456096        6.4020461306        0.2176569970
