117

 C        -2.5803484259       -1.0596880080       -6.0970402975
 C        -3.0843912420       -1.0640737422       -4.6603976472
 O        -2.4353655263       -1.6691312601       -3.8390797080
 C        -4.3673993450       -0.2923334485       -4.1260582571
 C        -5.1929006830       -1.3863610730       -3.3636623627
 O        -6.1234387871       -1.9579842120       -3.9158006224
 C        -4.7652686548       -1.9149606435       -1.9443276402
 C        -6.0080534674       -2.5896695314       -1.2630887121
 C        -6.9632200229       -1.5128777504       -0.7130407521
 O        -6.5374710337       -0.4758715034       -0.2418363256
 C        -8.5179921086       -1.6923329339       -0.7558006341
 C        -9.1812210992       -0.2140714330       -0.9881005231
 O        -9.8081008446        0.4063764159       -0.1870389882
 C        -8.9093031850        0.3548486128       -2.3982914315
 C        -9.4716152756        1.7790119064       -2.7300369774
 C       -11.0401684795        1.9000662165       -2.6892694546
 O       -11.6997026493        0.9931613633       -2.2099874380
 C       -11.6825830664        3.2519469943       -3.1723518118
 C       -11.8189337261        4.1655374677       -1.8985077673
 O       -11.5122193184        5.3515453480       -1.9201527617
 C       -12.5350429179        3.4934840214       -0.7141778396
 C       -11.5391957489        2.9387817421        0.2650645185
 C       -11.3835382848        3.7425202719        1.5623772533
 O       -12.2638957961        4.4996923464        1.9006999027
 C       -10.0490418744        3.6449381085        2.4828275588
 C        -9.5129392128        5.1944430021        2.3596978160
 O        -9.7282716838        5.8749362499        1.3623830215
 C        -8.4596864417        5.7781183606        3.2796935020
 C        -8.5056318343        7.2912320458        3.5815108411
 C        -9.5871307173        7.6655169785        4.6736734001
 O        -9.6223578952        6.9645285111        5.6799984524
 C       -10.6424455362        8.8244212532        4.3762070902
 C       -11.7190131126        8.1402605552        3.3753732719
 O       -11.4959869434        8.1035849303        2.1735440380
 C       -12.9760915643        7.5484088698        4.0764965744
 C       -14.0161824377        7.1906711956        2.9727140051
 C       -14.3297947003        8.3941916327        2.0710729117
 O       -14.0462394583        9.5326004670        2.4541758212
 C       -15.1813365827        8.2714540121        0.6472872212
 C       -14.1528847752        8.5190705543       -0.5666507573
 O       -13.1992949734        7.7389203759       -0.7603876223
 C       -14.2144586751        9.6396763418       -1.5711961674
 C       -15.6744479254        6.8428852402        0.5473337805
 C       -16.3049862966        9.3014375415        0.6250600766
 C       -11.0675969870        9.2737499796        5.7632111146
 C       -10.0598138740       10.0325233503        3.6890755682
 C       -10.6757841802        3.3533674516        3.8661722437
 C        -8.9446180505        2.6349771101        2.0537569320
 C       -10.8853773404        4.0971844348       -4.2308047925
 C       -13.1756938128        2.9002394666       -3.5840690047
 C        -8.9844597048       -2.7693561910       -1.7669676884
 C        -8.8683525532       -2.1271123303        0.7207525174
 C        -3.8352014826        0.8680844826       -3.2511257651
 C        -5.2296650734        0.2243322088       -5.3287113835
 H        -1.8367569107       -1.8179909445       -6.2833276434
 H        -2.1453653483       -0.1007235864       -6.3900385687
 H        -3.3394272313       -1.3478936978       -6.8169398423
 H        -4.3769417438       -1.1060862056       -1.3290440634
 H        -3.9003355847       -2.5835111243       -2.1137139317
 H        -5.6317137384       -3.0777268926       -0.3739885423
 H        -6.4363760187       -3.3467085663       -1.9068252719
 H        -9.1185203184       -0.2655243143       -3.2266578445
 H        -7.7879797238        0.4338664120       -2.5545211001
 H        -9.0806866379        1.9496161832       -3.7932544361
 H        -9.0667798792        2.5352064202       -2.0648829437
 H       -13.1686843485        2.6159786769       -0.9738540619
 H       -13.1948609329        4.1371705701       -0.1573893003
 H       -10.6036030332        2.5836139504       -0.1871429699
 H       -12.0104323408        2.0641180179        0.7363650056
 H        -7.5675104841        5.4459719754        2.7530623633
 H        -8.4393618829        5.2169732668        4.1643906334
 H        -8.6615916261        7.8254675426        2.6822092524
 H        -7.5613240230        7.5415805172        4.0463972462
 H       -13.3666834567        8.1951332869        4.8375313527
 H       -12.8376883015        6.6027576363        4.5862788630
 H       -14.9173606526        6.7923591681        3.3627955332
 H       -13.5476186581        6.4247304500        2.3246666051
 H       -15.1347908377        9.4917770777       -2.1124759512
 H       -13.2961047033        9.4633044197       -2.1489622346
 H       -14.3244688361       10.5900632156       -1.1392890542
 H       -16.0665485688        6.3940631233        1.4581841178
 H       -14.8509313386        6.2489446580        0.2523252683
 H       -16.4071768629        6.8488167283       -0.3016645603
 H       -17.1384264105        8.6667000645        0.2908631096
 H       -16.0049230540       10.1787064775        0.0681153327
 H       -16.4000259741        9.6690482561        1.5944777387
 H       -12.0380088820        9.6745880534        5.7532489589
 H       -10.4259779491        9.9383396985        6.2710931515
 H       -11.0670574065        8.3577703268        6.4500389535
 H        -9.7679797207        9.8258851846        2.6469968838
 H        -9.1436401648       10.2767103423        4.2658190157
 H       -10.7973663291       10.8010867738        3.7476376609
 H       -11.1481886832        2.3892292670        3.9039906215
 H       -11.4451540957        4.0254003074        4.2176817077
 H        -9.8895133741        3.2428215298        4.6609309348
 H        -8.8440950278        2.6347517160        1.0133449033
 H        -9.2044373929        1.6275230129        2.3763946963
 H        -7.9724702450        2.9566131926        2.5078291369
 H       -11.4740341352        4.9185656318       -4.5080467307
 H       -10.7673379600        3.4621124017       -5.1020246030
 H        -9.8952629203        4.2961533054       -3.8252609878
 H       -13.7433139381        3.7358136658       -3.7975644658
 H       -13.7354355671        2.5300550373       -2.6967188792
 H       -13.3185629225        2.2248774807       -4.4021804195
 H        -9.0839456585       -3.7530227832       -1.3414082779
 H        -8.2463857560       -2.9322773022       -2.5683426963
 H        -9.9959791996       -2.4657559005       -2.2721039864
 H        -9.9629371208       -2.0675338603        0.7525288673
 H        -8.3670724460       -1.3944947081        1.3617243951
 H        -8.6352684313       -3.1619317831        0.9140030659
 H        -3.2573669133        1.4647880876       -3.9514376656
 H        -3.2347842589        0.5653819856       -2.4168197877
 H        -4.6970354156        1.4540812256       -2.8910803365
 H        -6.1163513808        0.6413473090       -4.9260050792
 H        -5.4831114185       -0.6122654351       -6.0394902711
 H        -4.7157185119        1.0703107990       -5.7800862612
 Na      -11.6101396036        6.2403312234        0.2449038473
