117

 C        -2.6325756722       -1.0261550047       -6.0068552306
 C        -3.0152196028       -1.2567358646       -4.5543637400
 O        -2.2979660043       -1.7611199970       -3.7251700422
 C        -4.4000330965       -0.5945197611       -4.1416265276
 C        -5.2633175690       -1.5240509635       -3.2893636992
 O        -6.2868342233       -1.9423140213       -3.7631088497
 C        -4.7853889358       -1.9133815622       -1.9421373988
 C        -5.9025934923       -2.4811899280       -1.0773786560
 C        -6.8967215380       -1.3991925756       -0.6490378230
 O        -6.4421707894       -0.3316208181       -0.2789916164
 C        -8.4707824332       -1.6155784159       -0.6416895509
 C        -9.1664394635       -0.2951781220       -1.1299596429
 O       -10.0709078876        0.1348905049       -0.3909513946
 C        -8.9383496123        0.3069605255       -2.4852515188
 C        -9.5881294438        1.7169686095       -2.7458125974
 C       -11.0498836445        1.8497447837       -2.5830533466
 O       -11.7917818222        1.0898861962       -2.0327481724
 C       -11.7197824611        3.1806448241       -3.1944250931
 C       -11.8718356652        4.1317115863       -1.9081483288
 O       -11.3954774979        5.2460747048       -1.9218021519
 C       -12.5108935487        3.5534986155       -0.6673037473
 C       -11.3653074600        3.0261808509        0.2669845572
 C       -11.3654257290        3.7478694757        1.5788565346
 O       -12.3845680480        4.4371334173        1.8475627771
 C       -10.1058120194        3.7238120895        2.4548865045
 C        -9.3393878660        5.1119238220        2.2706129276
 O        -9.3719623734        5.7532581231        1.2508423744
 C        -8.5143026956        5.6706478480        3.4805375524
 C        -8.5456251204        7.2134197308        3.4888804563
 C        -9.5115331187        7.7147192529        4.5819933565
 O        -9.6128123084        7.1233848717        5.6471859454
 C       -10.6383701955        8.8338315870        4.2767220784
 C       -11.6383950210        8.1379208005        3.3448889701
 O       -11.2576562488        7.9785770637        2.1777792736
 C       -12.9409201037        7.5325001219        3.9308134958
 C       -13.9118950029        7.2503553634        2.7925147926
 C       -14.2950553909        8.5286594115        1.9994091087
 O       -13.9356691323        9.6153018571        2.3400840974
 C       -15.1751812657        8.2911248350        0.6644176871
 C       -14.1988528567        8.5611935180       -0.4778437399
 O       -13.1826892228        7.9135207676       -0.5976684643
 C       -14.3657858157        9.7491039413       -1.3844942696
 C       -15.6043374547        6.8538620050        0.3301165918
 C       -16.4435643930        9.2611421997        0.8629305011
 C       -11.2553351020        9.3187972739        5.6199471830
 C        -9.9452304030       10.0601156264        3.4869666326
 C       -10.5716615094        3.5944943498        3.9359882563
 C        -9.0168032033        2.6571840333        2.1078039450
 C       -10.9315094705        3.7713997562       -4.4430917144
 C       -13.0833457676        2.8566731742       -3.8257775204
 C        -8.9131036612       -2.6112542369       -1.7494207409
 C        -9.0031949384       -2.0155392600        0.7443165737
 C        -3.9814757808        0.6656518545       -3.2394008496
 C        -5.2332155372       -0.0200102789       -5.3315115659
 H        -1.6639727901       -1.4597184495       -6.2965814267
 H        -2.4566698334       -0.0010843901       -6.2103088364
 H        -3.4878977302       -1.3770874249       -6.6564060467
 H        -4.3373715806       -1.0000855936       -1.4841406094
 H        -3.9393283816       -2.6466416226       -1.9591796898
 H        -5.3333886007       -2.8581912760       -0.2129139097
 H        -6.4337717825       -3.3245836803       -1.5611899850
 H        -9.2289262772       -0.4311016770       -3.3103118432
 H        -7.8993862180        0.3881729819       -2.6912559249
 H        -9.2982249633        1.9559029105       -3.7327009008
 H        -9.1204704403        2.4194745447       -1.9893759054
 H       -13.1093309450        2.7146604467       -0.8777704481
 H       -13.2036535960        4.2843643826       -0.2096343788
 H       -10.4395285453        3.3566033697       -0.1928985244
 H       -11.3029699737        1.9458440245        0.3376085471
 H        -7.5182860739        5.1883637082        3.4071008780
 H        -8.8863689705        5.2771420871        4.4743263090
 H        -8.8163838703        7.6454120134        2.4550158001
 H        -7.5170944682        7.4874632071        3.8267402667
 H       -13.4209524268        8.1693611065        4.7319738081
 H       -12.7066521800        6.5340683987        4.4112531431
 H       -14.9060400926        6.7979502472        3.1019257397
 H       -13.3897638671        6.5320696085        2.1597131616
 H       -15.1276936072        9.6364470573       -2.1875876136
 H       -13.3327145707        9.8928406023       -1.7143527227
 H       -14.8104438351       10.5544233253       -0.7455775399
 H       -16.3287823604        6.5660339329        1.1008149456
 H       -14.7302985837        6.1350632311        0.4827388412
 H       -16.0064944740        6.7639528450       -0.6612103603
 H       -16.9772064531        8.7901806204        1.6382269074
 H       -16.8811822249        9.3550265160       -0.1408517681
 H       -15.9993530676       10.2716381287        1.0798930754
 H       -11.5717476425       10.4205809830        5.5671563216
 H       -10.4191476983        9.2131523533        6.3755549640
 H       -12.0029140362        8.8136842228        6.0881953647
 H        -9.3553842429        9.6481430471        2.7198018796
 H        -9.3270172202       10.6851769826        4.1225707326
 H       -10.7595720742       10.6404841354        3.0715539026
 H       -11.0469673100        2.6331061824        4.2308935341
 H       -11.3654224303        4.3507821222        4.2103259261
 H        -9.7530169110        3.6922606058        4.6412542325
 H        -8.6957013419        2.7251511149        1.0031263383
 H        -9.4282868778        1.6579110851        2.3416503218
 H        -8.1788314058        2.8040706831        2.7373603280
 H       -11.1680819516        4.8614028193       -4.3874337109
 H       -11.1968461883        3.3751855206       -5.4225138074
 H        -9.8647150379        3.7094232496       -4.2174395434
 H       -13.5893940360        3.7871429461       -4.2785870430
 H       -13.8587683052        2.5661257010       -3.1967654032
 H       -12.9654439571        2.1427016314       -4.6253681707
 H        -8.7770100493       -3.7271145619       -1.6864646117
 H        -8.5127798835       -2.2770564092       -2.7301835977
 H        -9.9367237851       -2.4821738996       -1.7994358149
 H       -10.0798145975       -2.0313664531        0.6781966314
 H        -8.6044281348       -1.2323669947        1.3724481447
 H        -8.7762152475       -3.0574666187        0.9897955347
 H        -3.5205705959        1.4542916721       -3.8596727303
 H        -3.2581581991        0.2298254239       -2.5146941655
 H        -4.8018132697        1.0362089199       -2.6335327982
 H        -6.1025228106        0.5454622804       -4.8610826841
 H        -5.4712768856       -0.8447524211       -5.9536107262
 H        -4.6457105724        0.6933417926       -5.9003951015
 Na      -11.8695148080        6.5126952340        0.4776153300
