117

 C        -3.9642639855        1.4746463474       10.5681273103
 C        -4.3237986682        2.4264454595        9.2092981443
 O        -5.2282417180        3.1883071911        9.2403418984
 C        -3.4237491739        2.3263557422        7.8526401394
 C        -4.4107104943        1.7862020755        6.7390168476
 O        -4.1080155920        0.6842483810        6.2680023212
 C        -5.6788277768        2.5683902962        6.3482182669
 C        -6.6550798548        1.7785983545        5.5150967698
 C        -7.8385249879        2.6516927581        5.2271527314
 O        -8.0361110504        3.7387152023        5.7313796958
 C        -8.7405355950        2.0451203888        3.9178477542
 C        -9.9654999818        3.0608607291        3.5790259709
 O       -11.1306361767        2.8315395974        3.5712535530
 C        -9.3782135629        4.3923686127        3.0729396757
 C       -10.5343320850        5.4318416808        2.9596409835
 C       -11.1075519200        5.5365067952        1.5367186992
 O       -10.4008733241        5.2558281255        0.6018234979
 C       -12.5969443703        6.3065566590        1.4493642703
 C       -13.1353817244        5.8664052470        0.0279346487
 O       -12.5908619268        6.3606397836       -0.9158773493
 C       -14.4490840989        4.8344051872       -0.0610879090
 C       -14.3457053198        3.7448371562       -1.2526264008
 C       -13.5778735814        2.4946107820       -0.7687791894
 O       -13.7102771797        2.2900122136        0.4284556969
 C       -13.0096202189        1.3681215834       -1.6797352057
 C       -12.3530809303        2.1072676348       -2.8693269225
 O       -11.8064199295        3.1955661930       -2.7970386016
 C       -12.3440050819        1.3598122780       -4.2676016160
 C       -11.5378569002        2.2361715653       -5.2234811415
 C       -12.2860242828        2.5406362940       -6.5117779413
 O       -13.4894808681        2.3064810671       -6.5191945592
 C       -11.4990024078        3.0631774786       -7.7222342447
 C       -10.5630022273        4.2206241476       -7.0988004080
 O        -9.4582122985        4.0412585153       -6.6460161762
 C       -11.1282358899        5.6067501139       -7.0440400698
 C       -10.3819153414        6.6954797806       -6.2011301209
 C        -9.9145667665        6.1163761795       -4.7651272647
 O       -10.8160341628        5.6922311629       -4.0118890141
 C        -8.4715006201        5.9886833573       -4.1992670121
 C        -8.3143439474        4.6081005104       -3.4589143869
 O        -8.7205177241        4.5107365638       -2.3319503555
 C        -7.6242277963        3.4241772506       -4.1648614050
 C        -7.4922245035        6.2686505732       -5.4565099110
 C        -7.9489665168        6.9956089716       -3.1455948328
 C       -10.7316331616        1.8722501085       -8.3480509933
 C       -12.6502613391        3.5110746037       -8.7517909252
 C       -11.9911260750        0.7341199727       -0.8398580933
 C       -14.1580406882        0.3988624266       -2.1252355694
 C       -13.6234526912        6.0743837396        2.6195017430
 C       -12.3618672286        7.8686774956        1.3317110673
 C        -7.7926179687        1.8599942060        2.7279468692
 C        -9.1647058076        0.6592988640        4.2624349858
 C        -2.9826570413        3.7614033714        7.4357557532
 C        -2.0995020708        1.4412739794        8.0973900356
 H        -4.2913370234        0.4808415924       10.6498902717
 H        -4.3571140739        1.9554894749       11.5028740246
 H        -2.9285154326        1.4524591757       10.6222240027
 H        -5.3149866218        3.4033380457        5.8005574747
 H        -6.0849244390        3.0140050855        7.1641122252
 H        -7.0555077408        0.8622140552        5.9182400851
 H        -6.2236228852        1.5564701872        4.5797416607
 H        -8.9125037713        4.2151573223        2.1131782861
 H        -8.6507584302        4.6684553020        3.8041075523
 H       -10.2338721035        6.5216095734        3.1799587577
 H       -11.3385749648        5.2587932461        3.6713030255
 H       -15.4790807867        5.2671468380       -0.1283238228
 H       -14.5706534512        4.2759525349        0.8539735038
 H       -14.1334235386        4.1188788139       -2.2598167189
 H       -15.4025303514        3.3652729712       -1.5156807257
 H       -13.2524114847        0.7541840383       -4.6002716188
 H       -11.6682904751        0.5365280895       -3.9857458791
 H       -10.6345581375        1.6596946061       -5.5519087599
 H       -11.1785230973        3.2114778904       -4.7588778041
 H       -12.1761566837        5.5980028102       -6.8530501964
 H       -11.0404089539        5.8658996498       -8.1085003980
 H       -10.9707430236        7.5487700857       -6.1383402536
 H        -9.5635541156        7.0550515568       -6.7862402079
 H        -8.1905408087        2.4645354149       -4.2200384548
 H        -6.6513701689        3.1586129313       -3.7925438099
 H        -7.4424567160        3.6530307248       -5.2214648362
 H        -7.6005993094        7.3559109207       -5.9172919586
 H        -7.6547658438        5.5514285074       -6.2216394191
 H        -6.4600916913        6.2662174006       -5.2144367697
 H        -8.4428605160        6.8300111850       -2.2396904847
 H        -8.0701731842        8.0008146220       -3.5473015794
 H        -6.9386597077        6.7922694812       -3.0029343947
 H       -11.3812071320        1.0285216603       -8.4396533238
 H        -9.8678157629        1.5411983424       -7.7399388069
 H       -10.2143695171        2.0654645247       -9.3101805204
 H       -12.2647285332        3.3544791118       -9.8000371103
 H       -12.8249985946        4.5582029442       -8.6523657759
 H       -13.5177149873        2.8341547417       -8.7712256095
 H       -12.3017162258        0.6253334137        0.2057516667
 H       -10.9845378674        1.2730514530       -0.7759234630
 H       -11.8417734450       -0.3145855546       -1.2048008354
 H       -14.6822514466        0.1059875965       -1.2402987483
 H       -13.8801918617       -0.5968861206       -2.4955597195
 H       -14.8419021459        0.8996625049       -2.8273224845
 H       -14.6044430002        6.3444353707        2.2677339150
 H       -13.4484746422        6.8003611192        3.3275063094
 H       -13.5716473349        5.1446866676        3.2087441225
 H       -11.6237802062        8.1605848745        0.5573719886
 H       -11.9686920254        8.2528473317        2.2748753658
 H       -13.3680811270        8.3220376306        1.1254801575
 H        -7.3367378019        0.8628148860        2.8590314965
 H        -6.9285053348        2.5931658508        2.6287437163
 H        -8.4340302205        1.8471206267        1.8521775475
 H        -9.9216139084        0.7020420913        5.0388343727
 H        -8.3191025332        0.0338681376        4.5165963583
 H        -9.5693326153       -0.0191902084        3.5163027888
 H        -3.8360489260        4.3701978151        7.0209183959
 H        -2.1299881409        3.5555878422        6.7140305341
 H        -2.5028069663        4.2721548884        8.2264259279
 H        -2.4674137355        0.4917367551        8.5905952660
 H        -1.3557544853        1.9469351577        8.8002084478
 H        -1.5802922727        1.2660258808        7.1516612572
 Na      -10.8413184754        5.0128532488       -1.7865424607
