117

 C        -2.5173371101       -1.2334529354       -5.8411982543
 C        -3.0823716195       -1.3810254802       -4.4423912053
 O        -2.4641572354       -1.9766450412       -3.5948021196
 C        -4.3989289157       -0.6689541829       -4.0972406268
 C        -5.3314230354       -1.5834467845       -3.1331654082
 O        -6.4728103482       -1.8387734202       -3.4936482856
 C        -4.7591923620       -2.1401799532       -1.7786463037
 C        -5.8543379682       -2.3655244834       -0.7390281396
 C        -6.9677554567       -1.2202021849       -0.6426657102
 O        -6.7011804374       -0.0449739064       -0.4703893459
 C        -8.5097302734       -1.6851391908       -0.7068320120
 C        -9.3052449881       -0.3610466433       -1.1050186241
 O        -9.8734062396        0.2916890048       -0.2105048326
 C        -9.1405868687        0.1517651982       -2.5518490780
 C        -9.4951834551        1.6484604650       -2.7984058422
 C       -11.0306814592        1.7859046037       -2.7868894325
 O       -11.7856706738        0.8714843770       -2.5656689521
 C       -11.7036774907        3.1918395647       -3.1673255959
 C       -11.8809585389        4.0420958205       -1.8526836548
 O       -11.5410627481        5.2277742514       -1.8131361441
 C       -12.3924639668        3.4255651911       -0.6008032251
 C       -11.2355852438        3.0928781134        0.3581662836
 C       -11.3739654726        3.8907516125        1.6549095352
 O       -12.2685407200        4.6511706487        1.8958080792
 C       -10.1451588110        3.7355251435        2.6015594675
 C        -9.3244573137        5.1337494743        2.3095069371
 O        -9.4904873636        5.7087196249        1.2432581714
 C        -8.3495853274        5.7311300209        3.2953306131
 C        -8.4234987122        7.2557328264        3.5072193543
 C        -9.5614115525        7.7477305943        4.5485104117
 O        -9.6088665176        7.2303808467        5.6424479658
 C       -10.4866939826        8.9125937910        4.1754639948
 C       -11.5431861183        8.1550765251        3.2564976558
 O       -11.1859706865        7.8374925283        2.1142707657
 C       -12.8806391032        7.6594931827        3.8148285718
 C       -13.9315983920        7.2778136424        2.7588173869
 C       -14.3353448480        8.5130081858        1.9436177774
 O       -13.9128195855        9.5561661844        2.3073318002
 C       -15.2497372683        8.3042880376        0.6209339473
 C       -14.2305430088        8.8243211181       -0.5607732005
 O       -13.1876424171        8.2444226715       -0.6787041652
 C       -14.5142191237       10.1465573387       -1.3483268349
 C       -15.6416228378        6.7919668663        0.4259477266
 C       -16.5737018738        9.1569704340        0.8450711912
 C       -11.1431453058        9.5228209383        5.4415235530
 C        -9.7250352498       10.0152596184        3.3539635461
 C       -10.6759042927        3.6034869374        4.0848162145
 C        -9.1304473817        2.4539482065        2.2650955967
 C       -10.9333712259        4.0829492009       -4.1851591967
 C       -13.0792129076        2.8965006175       -3.7943511707
 C        -8.8632580652       -2.8027513881       -1.7173688876
 C        -8.7954374543       -2.0911460045        0.7687276983
 C        -4.1091587594        0.6448384723       -3.3266530521
 C        -5.2635155199       -0.2711019179       -5.3718884601
 H        -1.4457319097       -1.2797203180       -5.8581814629
 H        -2.6748324006       -0.2777629272       -6.3134492162
 H        -3.0355138941       -1.9082456208       -6.4692466336
 H        -3.9848563586       -1.3897374235       -1.4359238005
 H        -4.2273697322       -3.0576236245       -1.9783655363
 H        -5.4069878793       -2.3960885278        0.2523716925
 H        -6.3460160041       -3.2956610293       -0.9175714130
 H        -9.9465906374       -0.3967502887       -3.1073286130
 H        -8.2409769634       -0.1848604616       -3.0239201971
 H        -9.1352378414        1.9516118236       -3.7717148846
 H        -9.0121536855        2.1882309759       -1.9506413975
 H       -13.0363932102        2.5363304354       -0.7529371757
 H       -13.0165886428        4.1675518734       -0.0953732284
 H       -10.2811230184        3.3517114363       -0.0976479324
 H       -11.1265541526        2.0072495812        0.5904993448
 H        -7.4158651409        5.5316263852        2.8104976455
 H        -8.3374858166        5.1299062293        4.1666539554
 H        -8.5516500918        7.7390983481        2.5806287863
 H        -7.4072741312        7.4555426772        3.8770660857
 H       -13.4027156868        8.3718651625        4.4327913510
 H       -12.5762128181        6.8032498972        4.4168313996
 H       -14.8509573944        6.9867213834        3.2766093590
 H       -13.5918812265        6.5043741966        2.1309004254
 H       -15.5601167260       10.3559788120       -1.3926018598
 H       -14.0683196215       10.0862290763       -2.2942605862
 H       -14.0787828157       10.9593179538       -0.7186224056
 H       -16.0946797078        6.3374111649        1.3237843791
 H       -14.8068131091        6.2082259843        0.0350105498
 H       -16.3976338354        6.7467701844       -0.3056106699
 H       -16.8913877264        8.9947228389        1.8832460955
 H       -17.2629186626        8.8871506957        0.0824970373
 H       -16.2126080400       10.2475616708        0.8500459966
 H       -12.1604307177        9.8864341251        5.1773947435
 H       -10.5807362871       10.3697679625        5.8306521159
 H       -11.3212025604        8.8533525564        6.2002140428
 H        -9.4853476625        9.5914575514        2.3673571299
 H        -8.8256043885       10.2260128324        3.8799397830
 H       -10.3180933254       10.9788521615        3.3127060279
 H       -11.6343775076        3.0392841868        4.1888244384
 H       -10.8780226396        4.5856197606        4.4838442562
 H        -9.9761400590        3.2503907127        4.7814079738
 H        -8.5823257671        2.5705269107        1.3258714278
 H        -9.6995996590        1.5587639595        2.2979850187
 H        -8.4456719049        2.3158441680        3.0797943846
 H       -11.5347152208        4.6035809193       -4.9574864812
 H       -10.3654151978        3.3388196110       -4.6896313455
 H       -10.3571909160        4.8394986285       -3.7370959668
 H       -13.6386425038        3.8413562049       -3.9041948577
 H       -13.7594085578        2.2667326860       -3.3072230070
 H       -12.9467651036        2.4871493794       -4.7955463505
 H        -8.7366796150       -3.7840010467       -1.1628528792
 H        -8.2217669014       -2.7004070554       -2.6158336906
 H        -9.8780154414       -2.9103139775       -2.0023761445
 H        -9.7381789394       -2.6212587211        0.8629779260
 H        -8.6964116967       -1.2099760143        1.3562076402
 H        -8.0425517839       -2.8634427602        0.9984110447
 H        -3.7488401110        1.3551012686       -4.0320641130
 H        -3.3558121556        0.4456598106       -2.5676357358
 H        -4.9977037473        1.0164220643       -2.8416214709
 H        -6.1598915661        0.0828554262       -4.8925947154
 H        -5.4557324778       -1.1128666919       -5.9775756814
 H        -4.7607384214        0.4464427350       -6.0455740906
 Na      -11.7014768151        6.2953895301        0.1146937834
