117

 C        -2.5282708633       -1.4043597061       -5.6293128206
 C        -3.1865960771       -1.5216117672       -4.2789127342
 O        -2.6563968259       -2.1471943434       -3.3776231099
 C        -4.5297448532       -0.6740494528       -4.0393590055
 C        -5.3942154964       -1.4472123308       -3.0692306843
 O        -6.5705722468       -1.7573132927       -3.3108837703
 C        -4.8163125984       -1.8337065390       -1.6965916271
 C        -5.8281842607       -2.3147347102       -0.6448774278
 C        -6.9749369831       -1.2180625203       -0.7386260530
 O        -6.6111824889       -0.0729741531       -0.9448497625
 C        -8.5191540138       -1.6752954418       -0.6455022428
 C        -9.2377839918       -0.3075918986       -0.9895871966
 O        -9.5478875905        0.4697361349       -0.1291042333
 C        -9.2108185429        0.0087540392       -2.5156162063
 C        -9.5495187927        1.5273712747       -2.7625347080
 C       -11.0769134424        1.7127810568       -2.9952360625
 O       -11.9190433567        0.8268325807       -3.0570951977
 C       -11.6379127714        3.2042464851       -3.1641481267
 C       -11.8816402439        3.9821583805       -1.8591230971
 O       -11.7442183377        5.1930064376       -1.8477175882
 C       -12.4576648592        3.1979197354       -0.6375379255
 C       -11.3770131112        2.8184762003        0.4293657607
 C       -11.2956139170        3.8404243717        1.6216820090
 O       -12.2511454107        4.6423736747        1.7565523848
 C       -10.0540967920        3.7757559657        2.7076158834
 C        -9.3905141423        5.1511842349        2.3847832341
 O        -9.6363199469        5.8428750881        1.4167733874
 C        -8.3138745516        5.6747003990        3.4116952167
 C        -8.3162817931        7.1830150461        3.4921376365
 C        -9.3916926733        7.5976392777        4.4235230438
 O        -9.6423106764        7.0861619793        5.4701376348
 C       -10.3736123864        8.8208906224        3.9885775810
 C       -11.5091474430        8.1040421114        3.1562275370
 O       -11.3838578426        7.9670322295        1.9731604832
 C       -12.7953920334        7.6630782832        3.8383285981
 C       -13.9175950700        7.4137187553        2.8312089955
 C       -14.2999354954        8.6035969677        1.9715624107
 O       -14.0510872222        9.7703758294        2.2784415708
 C       -15.1579757590        8.3651798293        0.6756196191
 C       -14.2070332382        8.7595542453       -0.5282928942
 O       -13.2022004253        8.0621367610       -0.8048219053
 C       -14.5136424286       10.0889895125       -1.2000779525
 C       -15.4176004325        6.8204349566        0.3046672553
 C       -16.5314933126        9.1839611119        0.8254983140
 C       -10.9121771835        9.5035394557        5.3086113380
 C        -9.7156496434        9.8755831257        3.0584612712
 C       -10.6665002622        3.8966591417        4.1782434613
 C        -9.0878218971        2.6055183546        2.5798969325
 C       -10.7380493786        4.0153148189       -4.0636752972
 C       -13.1356399718        3.1108629571       -3.6411464452
 C        -8.8344568713       -2.8336746573       -1.5909965640
 C        -8.9019091398       -2.0885643944        0.8706751266
 C        -4.0619220894        0.6369495243       -3.4095483689
 C        -5.3016969362       -0.5165574873       -5.3723605837
 H        -1.5021994153       -1.7113333676       -5.5593060097
 H        -2.4539457945       -0.3543589920       -5.9958380948
 H        -3.1348509781       -1.8812153962       -6.3751961099
 H        -4.2005550243       -1.0297544117       -1.3400428795
 H        -4.1025947760       -2.6658957073       -1.9884257036
 H        -5.4263031814       -2.3514015681        0.3796180580
 H        -6.2621632735       -3.3001573046       -0.9460959643
 H        -9.8779805299       -0.4821203674       -3.2035211037
 H        -8.1752811324       -0.2586403412       -2.9100910037
 H        -8.9919767179        1.8902385939       -3.6577127847
 H        -9.2864839367        2.0471716518       -1.8587349175
 H       -12.9884275446        2.3218263972       -0.9713843211
 H       -13.1321593455        3.8284230539       -0.0538812823
 H       -10.3892942273        2.6714971722       -0.0095010881
 H       -11.5738970038        1.8742606449        0.8902616708
 H        -7.3681576764        5.1936548646        3.0487348809
 H        -8.5612832070        5.2309192836        4.4052088403
 H        -8.4152355910        7.7104142639        2.4875458457
 H        -7.3436846085        7.5012193588        3.9367768450
 H       -13.1500164625        8.4117523524        4.5869593324
 H       -12.5969293581        6.6759876980        4.3496025924
 H       -14.8135731068        7.0246411855        3.3507069664
 H       -13.5021280171        6.6123861433        2.1246159589
 H       -15.3374092564       10.6159350735       -0.6547405990
 H       -14.8554385535        9.9071131145       -2.2781659376
 H       -13.5958007112       10.6865425289       -1.1979931275
 H       -16.0302129251        6.3200041280        1.0494395720
 H       -14.4766439574        6.3065880521        0.1179707435
 H       -16.0288725085        6.6767059365       -0.6484963296
 H       -17.3288521729        8.4897494985        1.2060537902
 H       -16.7933981578        9.4321477330       -0.2210955295
 H       -16.4163656084        9.9246742983        1.5519633446
 H       -11.9465075564        9.7484557758        5.3093947770
 H       -10.4058622237       10.4456701528        5.4279146456
 H       -10.8366032805        8.8394749794        6.2931556841
 H        -9.8774440831        9.5609048708        2.0416803143
 H        -8.6895357905       10.1963655688        3.2905710023
 H       -10.3310235434       10.7154798147        3.1861237109
 H       -11.0706319880        2.9303247128        4.4721440698
 H       -11.4348757382        4.6711871188        4.3956968584
 H        -9.8959068404        4.1645709374        4.9813058215
 H        -9.0356643319        2.3953485098        1.5381709514
 H        -9.3807427399        1.7462674122        3.2236258992
 H        -8.0432304642        2.9111065093        2.8905369641
 H       -11.2938891899        4.8793563260       -4.2657757498
 H       -10.4476763603        3.5483075755       -5.0027719635
 H        -9.9190452011        4.4782923520       -3.4776854399
 H       -13.7422216291        3.9641510991       -3.6633533493
 H       -13.6724289722        2.3012524221       -3.0577382988
 H       -13.1779241610        2.6635744694       -4.6259973895
 H        -8.7123820993       -3.7390303440       -1.0526675242
 H        -8.1724168924       -2.7448104447       -2.4237875037
 H        -9.9005911751       -2.8778870516       -2.0000165616
 H        -9.9587043924       -2.4325985887        0.8947878457
 H        -8.7036713988       -1.2675540777        1.6109287613
 H        -8.2432350861       -2.9384173913        1.0100292469
 H        -3.2735750016        1.1191863511       -4.0391495533
 H        -3.6816667087        0.4782578680       -2.4029871826
 H        -4.9362383009        1.3264354039       -3.4004418944
 H        -6.3306481507       -0.3930166591       -5.0891370647
 H        -5.1939483052       -1.3912819901       -6.0635552973
 H        -4.8201766166        0.2878815404       -5.8840462045
 Na      -11.7022005040        6.6191146869        0.0749046426
