117

 C        -2.3915910600       -1.6076344815       -5.5309105908
 C        -3.0876934631       -1.6957444567       -4.2252456689
 O        -2.6156790185       -2.3775179992       -3.3191143129
 C        -4.4170750771       -0.8232406279       -4.0654628225
 C        -5.3433457672       -1.4732040697       -2.9499059897
 O        -6.4981560262       -1.6870135972       -3.2119465844
 C        -4.7594009933       -1.8421034618       -1.5925563705
 C        -5.8681877286       -2.2458982320       -0.5978214565
 C        -7.0151405827       -1.1702293557       -0.7354934363
 O        -6.7480079681        0.0076957354       -0.8327873062
 C        -8.5807060081       -1.5733510305       -0.4610788410
 C        -9.3100997733       -0.2652203959       -0.9254982152
 O        -9.4614495477        0.6190701059       -0.1404644890
 C        -9.5294004366       -0.0635479919       -2.3837733416
 C        -9.7900086036        1.4485474794       -2.7666507222
 C       -11.2380855239        1.7363501061       -3.1885106910
 O       -12.0254502687        0.8351579135       -3.4499103775
 C       -11.7503412252        3.2600082335       -3.1455425300
 C       -11.8227947748        3.6886799264       -1.6825932891
 O       -11.5312065475        4.8247676077       -1.3655755391
 C       -12.3866164896        2.7948704770       -0.5688203666
 C       -11.3699749701        2.7005285029        0.6313952899
 C       -11.3415020051        3.8630660327        1.5497686460
 O       -12.2362794245        4.7436857511        1.5092749785
 C       -10.2934143897        3.9631552036        2.6955390859
 C        -9.4726113583        5.2974704719        2.3089677602
 O        -9.7779138715        6.1005392930        1.4585766708
 C        -8.1040039741        5.6609937853        3.1028016466
 C        -8.0735168608        7.1486967671        3.5128721831
 C        -9.3578483455        7.5367890396        4.2040084931
 O        -9.8208177855        6.8204244033        5.0670147079
 C       -10.2059260398        8.8411173866        3.7816601787
 C       -11.4712741108        8.3176706904        3.0588559696
 O       -11.6030002401        8.3226708225        1.8696149964
 C       -12.6980194310        7.8640714949        3.8820118204
 C       -13.8708771428        7.3625956468        2.9311881103
 C       -14.3271765714        8.5368716888        2.0479177203
 O       -14.1443621478        9.7016293705        2.4226430561
 C       -15.0570471296        8.2474564283        0.5475158987
 C       -14.0854789308        8.7486702008       -0.4824999773
 O       -13.1321304612        8.0634801610       -0.9074321014
 C       -14.3446288149       10.1064885859       -1.0706811165
 C       -15.3367766442        6.7079188564        0.3186519824
 C       -16.3993142063        9.1557330863        0.5738523276
 C       -10.5700481921        9.6120430715        5.0740794791
 C        -9.4222231292        9.8347305410        2.8881904457
 C       -10.9828399740        4.1155442944        4.0304152818
 C        -9.2572928236        2.7682485325        2.7183547896
 C       -10.7711903691        4.1448449213       -3.8846975329
 C       -13.1076246708        3.3282576588       -3.8625191851
 C        -9.1199448275       -2.7587205631       -1.3649226692
 C        -8.7652702229       -1.8196317080        1.0565077839
 C        -4.0530726949        0.6551251097       -3.5658582824
 C        -5.2228568955       -0.7961105843       -5.3334168831
 H        -1.5042699593       -2.2077364381       -5.5364022623
 H        -2.1141183631       -0.6170569184       -5.8101802812
 H        -3.1081756767       -1.9032941800       -6.3338046991
 H        -4.0480244342       -1.0898513356       -1.2656220154
 H        -4.1457944524       -2.7955652308       -1.8087606095
 H        -5.5516739864       -2.3441478023        0.4069808942
 H        -6.3849312088       -3.1300727337       -0.9363311492
 H       -10.3074178220       -0.7135120014       -2.8529454759
 H        -8.6316422349       -0.2916175176       -2.9037263066
 H        -9.0848803069        1.7037804886       -3.5501077218
 H        -9.4463103887        2.0225207898       -1.8440365624
 H       -12.5417478774        1.8099218486       -0.9174513870
 H       -13.3592319780        3.2434963165       -0.2276332986
 H       -10.3525587377        2.4575490598        0.2842169627
 H       -11.5983755057        1.8272013816        1.2680860776
 H        -7.3107935422        5.5268579088        2.4328535781
 H        -8.0113764913        4.9538198528        3.9103591696
 H        -7.8947831696        7.7479549064        2.5645015630
 H        -7.2200483313        7.3347592865        4.1043290146
 H       -13.0701236562        8.7241322533        4.4358210924
 H       -12.4956770804        7.0590302809        4.5718853067
 H       -14.6460117410        7.0194129148        3.5999895540
 H       -13.5729233075        6.4956233552        2.3474868008
 H       -13.8454229832       10.8414740792       -0.4652234164
 H       -15.3865673588       10.4202005548       -0.9813002050
 H       -13.9796797358       10.0787301060       -2.0292178609
 H       -15.6971044408        6.2325006348        1.1832250941
 H       -14.4447883785        6.1872145708       -0.0520449203
 H       -16.0720976262        6.5453589304       -0.4551003782
 H       -16.9268208589        8.9723480830        1.4973856330
 H       -17.1509705643        8.6791412795       -0.1635972824
 H       -16.2247435489       10.2084013949        0.5544556373
 H       -10.6693856882       10.6324169247        4.8745496069
 H        -9.7456730981        9.5620628614        5.7459587943
 H       -11.5104053574        9.2881093668        5.6307684333
 H        -8.9761616884        9.3918404944        2.0053195992
 H        -8.6370703438       10.2319649793        3.6246568397
 H        -9.9916619509       10.6903417338        2.5769813661
 H       -11.5073622275        3.2970423006        4.3733134372
 H       -11.6451471611        4.9734631173        3.9834364382
 H       -10.2683968318        4.4049122432        4.8259095781
 H        -8.5186308355        2.7632502660        1.9285949683
 H        -9.8750518314        1.8681295538        2.6737707113
 H        -8.7668382171        2.7580372191        3.6561500902
 H       -11.0088008555        5.1769608490       -3.6999011151
 H       -10.8787327545        3.9677475635       -4.9609898503
 H        -9.7022757086        3.9398317734       -3.5993134594
 H       -13.3290106896        4.3506422442       -4.1733846827
 H       -13.9225660952        2.9609879624       -3.2191001476
 H       -13.2210510732        2.7579733294       -4.7632352584
 H        -8.5510325952       -3.6971133425       -1.3345964682
 H        -9.0983794626       -2.4389462426       -2.4239972377
 H       -10.2011675387       -2.8427920641       -1.1582704107
 H        -9.8176862176       -1.8780773248        1.1703654664
 H        -8.5124600523       -0.8857993445        1.5723107335
 H        -8.1417319161       -2.5903131655        1.4365048857
 H        -3.5512949534        1.1633260920       -4.3850509920
 H        -3.3083103255        0.5762956036       -2.8022281863
 H        -4.8933561770        1.2402093021       -3.2914908859
 H        -6.0700969446       -0.1011248502       -5.0996720021
 H        -5.7621027898       -1.7413372430       -5.3483398999
 H        -4.6878240657       -0.5601532981       -6.2111863061
 Na      -11.8945018920        6.4934512172        0.2895176920
