117

 C        -2.3249280615       -1.6169857533       -5.6094963491
 C        -3.0531077967       -1.7440496561       -4.2210967926
 O        -2.5742908309       -2.3809600933       -3.3184922752
 C        -4.3961598923       -0.9584527841       -4.0395413145
 C        -5.2994725096       -1.5335504271       -2.9475465416
 O        -6.5192657298       -1.6780586842       -3.2229505847
 C        -4.8049034677       -1.8537240086       -1.5695343817
 C        -5.9281107472       -2.2076152891       -0.5971088141
 C        -7.0288272179       -1.1273770358       -0.6383289527
 O        -6.6885867666        0.0322374262       -0.6702977627
 C        -8.6107519982       -1.4715139872       -0.4472433176
 C        -9.3193450620       -0.2227455016       -0.9288293275
 O        -9.5576526366        0.6445830409       -0.0823320418
 C        -9.6748947031       -0.0769321404       -2.4171153907
 C        -9.8731780123        1.4784659896       -2.7809189696
 C       -11.2716008245        1.7562459471       -3.2086296640
 O       -12.0917008937        0.9039421527       -3.5189315804
 C       -11.6946486824        3.2624059648       -3.1597728394
 C       -11.8477950429        3.6319191025       -1.6367065406
 O       -11.3595405070        4.7008764988       -1.3406672111
 C       -12.3973932463        2.6568181072       -0.5942526315
 C       -11.4001949596        2.6323320494        0.6070078298
 C       -11.4707223885        3.8386995139        1.5307561725
 O       -12.3861923482        4.6826169802        1.5001515400
 C       -10.3168062855        4.1065685415        2.5759714107
 C        -9.4595698531        5.3427156031        2.2588414347
 O        -9.8551583803        6.1344024054        1.4487431432
 C        -8.1395528131        5.6236743400        3.0514196013
 C        -8.0467623493        7.1057443582        3.5145276705
 C        -9.4252625827        7.5302115991        4.1510810950
 O        -9.9709226523        6.7934710311        4.9166747928
 C       -10.0969708046        8.8979237380        3.8078699892
 C       -11.5347492439        8.4623419607        3.0006209963
 O       -11.5285414713        8.5075185910        1.7909174686
 C       -12.7023391019        7.9391903671        3.8505319172
 C       -13.7965026912        7.4511438122        2.9242629189
 C       -14.2759586911        8.5766348978        1.9828441194
 O       -14.2576570762        9.7047269249        2.3576432087
 C       -15.0167577890        8.1911224800        0.6772895165
 C       -14.0800390888        8.7297785684       -0.5140179426
 O       -13.1053933213        8.0279887243       -0.7799906919
 C       -14.1544517992       10.1186667905       -1.1096945661
 C       -15.3280271077        6.7607906131        0.3091394439
 C       -16.3118359316        8.9612362485        0.7710667949
 C       -10.4502423492        9.6094994975        5.1097654612
 C        -9.3320562106        9.8256096091        2.7936252906
 C       -10.9325098106        4.2994393864        3.9552638127
 C        -9.3725403035        2.8065057997        2.7026463342
 C       -10.7079042406        4.3246353685       -3.7641388255
 C       -13.1840121487        3.3668385572       -3.6990906109
 C        -9.1317978133       -2.7930487664       -1.1684106378
 C        -8.6977816133       -1.7867717357        1.0318008647
 C        -3.9392036759        0.4511620579       -3.5619708570
 C        -5.1802434267       -0.8747923026       -5.3921045205
 H        -1.3746242920       -2.1123636686       -5.6100555571
 H        -2.1922412272       -0.5724813633       -5.9262800272
 H        -2.8853234915       -2.0307963844       -6.3701407908
 H        -4.3043316788       -0.9008719357       -1.2634373244
 H        -4.0314830152       -2.6854555780       -1.4907209701
 H        -5.5217506305       -2.1305968582        0.3988851479
 H        -6.4234024729       -3.1651985663       -0.7172686522
 H       -10.5958037871       -0.6109676970       -2.5974521975
 H        -8.9278412950       -0.4766560198       -3.1594824902
 H        -9.1780937818        1.8236799110       -3.6158848932
 H        -9.4911697442        2.0026207887       -1.8952817902
 H       -12.4680725112        1.6521558299       -1.0028200384
 H       -13.3688200140        2.9973046407       -0.2759116591
 H       -10.3738893158        2.6602462243        0.2329177038
 H       -11.4153323982        1.6965886252        1.1125216539
 H        -7.2928500255        5.3596797061        2.4117630328
 H        -8.1479116005        4.9486827777        3.9143452574
 H        -7.6803871186        7.7782781001        2.7175750948
 H        -7.1974710134        7.1021512903        4.2762708959
 H       -13.1123371016        8.7894221848        4.4507843237
 H       -12.3752351611        7.1082648475        4.5440078575
 H       -14.6071403238        7.0698259940        3.5519217730
 H       -13.4194518742        6.5344320512        2.3706382317
 H       -13.7171447529       10.8124325987       -0.3978916072
 H       -15.1725622034       10.4785465095       -1.1438880755
 H       -13.6062744893       10.0288567718       -2.0614308934
 H       -15.6126663848        6.1151279555        1.1283099175
 H       -14.4827572146        6.3153495633       -0.1439882051
 H       -16.1105550187        6.7103576166       -0.4844464139
 H       -17.1228357378        8.4345989791        1.4013302231
 H       -16.7608244042        8.8433656142       -0.1998313244
 H       -16.1382202453        9.9835662013        1.1342872492
 H       -10.7924639680       10.6275216649        5.0326184361
 H        -9.5473581751        9.6294993859        5.7111144485
 H       -11.1973911716        8.9915030886        5.7001042723
 H        -9.3112546101        9.3747292172        1.7770532830
 H        -8.3500625515       10.0708052168        3.1598467639
 H        -9.8527013260       10.7685277682        2.7193346522
 H       -11.5763705032        3.4565859886        4.2754574084
 H       -11.5263976761        5.2013851959        4.0262283343
 H       -10.1649604078        4.4045803491        4.7503557468
 H        -8.4604571660        2.8419336473        2.1950644316
 H        -9.9105862983        1.9317751238        2.3927306290
 H        -9.1257708904        2.6829157985        3.8095614518
 H       -11.3003424133        5.2063723177       -3.7377419433
 H       -10.4526960800        4.1756321829       -4.8128434906
 H        -9.7671343856        4.4179786261       -3.2099092100
 H       -13.5650047651        4.2799148408       -3.9525302026
 H       -13.8539006560        2.8017694233       -2.9949119029
 H       -13.2859031338        2.7862764803       -4.6144812371
 H        -8.7065462539       -3.6580993645       -0.7237557976
 H        -8.9545743760       -2.9077609560       -2.2308096498
 H       -10.2744917360       -2.6738364438       -1.0431414726
 H        -9.7390766076       -1.9513511657        1.2639251092
 H        -8.4293975128       -0.8902724048        1.5817762416
 H        -7.9622735702       -2.5136302523        1.2797013339
 H        -3.5906039761        0.9516809219       -4.4533396922
 H        -3.1025155454        0.4222663553       -2.9164253696
 H        -4.7623451458        1.0516804888       -3.1607588867
 H        -6.0424201353       -0.2918090670       -5.2556807119
 H        -5.5745518187       -1.8810888625       -5.5675949845
 H        -4.5727526348       -0.4082585440       -6.1961462604
 Na      -11.9638942859        6.3767296164        0.2021820870
