117

 C        -3.7084619683        1.7353991108       10.3448356515
 C        -4.1531017429        2.5638546386        9.1472938808
 O        -5.2095874765        3.2026437515        9.2088726020
 C        -3.3776628364        2.3570847238        7.8836137102
 C        -4.3212643399        1.7887231615        6.7162223550
 O        -4.0823146085        0.8294661930        6.0710467225
 C        -5.5416383484        2.6764039517        6.2846828366
 C        -6.6537984262        1.8112995567        5.5694464748
 C        -7.8307066965        2.7121894448        5.1064031101
 O        -8.0887241502        3.7444357687        5.7070814139
 C        -8.7644129876        2.0774753531        3.9495270064
 C        -9.8973232518        3.1468398280        3.4568010532
 O       -11.0575456104        2.8742922657        3.5078523856
 C        -9.3877084836        4.5352727328        3.1501047061
 C       -10.6055787508        5.4679768934        3.0222969538
 C       -11.1498437594        5.6297267131        1.5689923191
 O       -10.4744578803        5.1953114767        0.6506277371
 C       -12.6424241789        6.4108673684        1.3389272009
 C       -13.1722675643        5.8144927577        0.0281866567
 O       -12.5620775967        6.1379079169       -0.9588261767
 C       -14.3388990532        4.9541408900       -0.1298375578
 C       -14.2154616176        3.8590887344       -1.2327179426
 C       -13.7332566395        2.4515776653       -0.7094101770
 O       -13.9254918703        1.9650396633        0.3731761717
 C       -13.0383002325        1.4067544801       -1.6903788372
 C       -12.2769503238        2.0040482130       -2.8384551650
 O       -11.7392306596        3.1164776849       -2.7782504548
 C       -12.4174286414        1.3023227599       -4.2080261084
 C       -11.4601450197        1.9533976234       -5.1745329648
 C       -12.4608333414        2.4516341462       -6.4187987782
 O       -13.6497528642        2.3654535664       -6.4432687041
 C       -11.5457262129        3.0256146052       -7.5612205187
 C       -10.5930813280        4.1894163462       -7.0564107199
 O        -9.5051798576        3.9536450202       -6.5656010905
 C       -11.2373865637        5.5573961203       -6.9774946810
 C       -10.2577276865        6.4447440813       -6.2729589480
 C        -9.9719204203        6.1196233312       -4.8002888342
 O       -10.9066930411        5.8924521545       -4.0677994569
 C        -8.3563219454        5.9574339379       -4.2745367897
 C        -8.3770883920        4.5111947020       -3.5334218895
 O        -8.8319200283        4.3110851986       -2.4477827881
 C        -7.6999193981        3.3617527534       -4.1742198821
 C        -7.3502247988        6.1187196611       -5.3507324735
 C        -7.9564535670        6.9795756394       -3.0494569950
 C       -10.6691174755        1.8818170068       -8.0105980786
 C       -12.4608382354        3.5712591462       -8.6148949190
 C       -11.8657111840        0.5752279533       -0.8992086682
 C       -14.1109202850        0.4990474145       -2.1508884388
 C       -13.6140560816        6.1291060482        2.5482794228
 C       -12.4423577288        7.9045937693        1.2619218554
 C        -7.8541901748        1.8755031931        2.6308616295
 C        -9.3206410307        0.7727794473        4.5058142008
 C        -3.0251387649        3.8620342435        7.4088115100
 C        -2.0704844075        1.6431195768        7.9911035456
 H        -4.1848190364        0.7462800669       10.3145435260
 H        -4.2288066457        2.1462583239       11.1539069202
 H        -2.5735621587        1.5914182726       10.5612290190
 H        -5.1453151218        3.5608196418        5.7542464240
 H        -5.9771503789        3.1593489748        7.1959425115
 H        -7.1153681217        1.1858987589        6.2434419671
 H        -6.2862680782        1.2176653006        4.7375613447
 H        -8.7907272771        4.5011176871        2.2410361693
 H        -8.8156877137        4.8274308832        4.0412341325
 H       -10.3625790878        6.4992553234        3.4518011223
 H       -11.3996712316        5.1293775503        3.6261097545
 H       -15.3109706131        5.4820016624       -0.3978102586
 H       -14.6590680457        4.5488127003        0.7805967395
 H       -13.5192005799        4.1641444105       -1.9515352344
 H       -15.1090018457        3.8539176496       -1.9308866578
 H       -13.5180986202        1.3684249627       -4.4646129736
 H       -12.3619014741        0.1954047967       -4.0236858951
 H       -10.5731499300        1.3372471822       -5.5257411789
 H       -11.0441686555        2.8890432948       -4.6482670396
 H       -12.1516307655        5.4347236301       -6.4013884002
 H       -11.5519694116        5.9094428784       -7.9272672888
 H       -10.6901159804        7.4365435884       -6.2576032091
 H        -9.4116723638        6.6006243125       -6.9085115524
 H        -8.1784864944        2.4093868406       -4.0614160519
 H        -6.6207402175        3.2281690041       -3.7114145414
 H        -7.5228491407        3.4301972641       -5.2552497775
 H        -7.4128274125        7.1082799089       -5.8075290426
 H        -7.5659835517        5.3907623805       -6.1307512656
 H        -6.3476754187        6.0379076394       -5.0546449019
 H        -8.5031719913        6.5819956364       -2.2775159252
 H        -8.2524257290        7.9737985295       -3.2302696888
 H        -6.8969841554        6.8757063341       -2.7839139822
 H       -11.2056122227        1.0014262316       -8.2109842385
 H        -9.8737927122        1.6317681096       -7.2826186153
 H       -10.0098624907        2.1151049755       -8.9103752855
 H       -11.9561707369        4.2167276558       -9.3483799413
 H       -13.2780669537        4.2020199103       -8.1823760748
 H       -12.7321517534        2.7206964557       -9.2936592527
 H       -12.1851151961        0.1821056568        0.1021246252
 H       -10.9414083139        1.1550199153       -0.7173424741
 H       -11.6392037839       -0.3387760580       -1.4624363579
 H       -14.5614722202        0.0108685592       -1.3855560917
 H       -13.7409209292       -0.3598001711       -2.6725220260
 H       -14.8636207715        1.0977692624       -2.7279142858
 H       -14.5902945138        6.3880617365        2.2063074511
 H       -13.4380535231        6.8601510822        3.4783377112
 H       -13.5483574119        5.1720573926        2.9586987039
 H       -11.9327190814        8.3063000398        0.4086189032
 H       -11.8736586892        8.1902422310        2.1530690880
 H       -13.4605907600        8.3233703414        1.3361930292
 H        -7.0809498628        1.1532678639        2.8046578094
 H        -7.3410850182        2.8103131507        2.4959762238
 H        -8.4921463327        1.6604082295        1.7568445023
 H       -10.1108800794        0.9646532948        5.2632069463
 H        -8.5250096078        0.0370392403        4.7726177725
 H        -9.8061292231        0.0734323444        3.7778513822
 H        -3.9384942686        4.4659898392        7.5336149830
 H        -2.5514275632        3.8487183862        6.4217490394
 H        -2.2085175570        4.2452605566        8.1218227180
 H        -2.1813596226        0.7204736404        8.5980643716
 H        -1.2849279625        2.2946590049        8.4587959103
 H        -1.7795950011        1.3980395548        6.9075403247
 Na      -10.8486736269        4.9591561572       -1.7725814751
