117

 C        -2.2049197265       -1.7763480878       -5.5803384488
 C        -2.9431654005       -1.9251934566       -4.2652060576
 O        -2.4342872022       -2.5376543586       -3.3350869649
 C        -4.3484011873       -1.1103868197       -4.0827207112
 C        -5.3414132867       -1.6339933367       -3.0284590424
 O        -6.5070789858       -1.7537188873       -3.1928902278
 C        -4.8032655366       -1.8180953330       -1.6103968842
 C        -5.9787685914       -2.2705374695       -0.6705294830
 C        -7.0146649637       -1.0742858177       -0.4850414497
 O        -6.6418380107        0.0676637628       -0.4526924571
 C        -8.5702667547       -1.4505208909       -0.3041989001
 C        -9.4303680621       -0.2602992400       -0.8630973223
 O        -9.6928104343        0.5753484859       -0.0460457626
 C        -9.8011866925       -0.0974037255       -2.3413670977
 C        -9.9202848283        1.3528461015       -2.8320276862
 C       -11.3574902973        1.8203177473       -3.1442437037
 O       -12.0860963045        1.0210906507       -3.6995212535
 C       -11.7967716898        3.3692400272       -3.0777899800
 C       -11.7017919527        3.6884801483       -1.5274559266
 O       -11.1202961098        4.6961448154       -1.1392584664
 C       -12.3933131633        2.7035796714       -0.5427141749
 C       -11.5447220947        2.5262493646        0.7089232068
 C       -11.7037642102        3.7264809158        1.6312762130
 O       -12.7111686787        4.3996425688        1.6822618350
 C       -10.4633982300        4.1098758379        2.4370014971
 C        -9.6477241191        5.3594641768        2.1489712918
 O        -9.9503479874        6.2228266041        1.3468002635
 C        -8.3486040487        5.5608737969        2.9588167752
 C        -8.2344643331        7.0506413800        3.3484416230
 C        -9.4919783632        7.5196858597        3.9967135755
 O       -10.1945220490        6.8376992085        4.7569775099
 C       -10.0039739251        8.9539360028        3.6485492604
 C       -11.3442991703        8.6425201609        2.8963514008
 O       -11.4499551421        8.6565000384        1.6893104679
 C       -12.5826611389        8.2174031151        3.7895331384
 C       -13.6720226759        7.5277279471        2.9127951862
 C       -14.2695896708        8.5707732373        2.0340035776
 O       -14.2270788634        9.7836791098        2.3697353403
 C       -15.0203411887        8.1998681631        0.7171852828
 C       -14.0104928898        8.6636794568       -0.4739543755
 O       -13.0112230336        8.0186710516       -0.7617964688
 C       -14.0715794470       10.1130031296       -0.9783273676
 C       -15.1940284873        6.6520422647        0.5643481056
 C       -16.4605461909        8.9162423979        0.5825373832
 C       -10.1936653010        9.7019630055        5.0228631805
 C        -9.0356437380        9.8303272284        2.7644518703
 C       -11.1458256140        4.3540638450        3.8093222849
 C        -9.4839296938        2.9813757855        2.6534157885
 C       -10.8674059429        4.2608079457       -3.9498256204
 C       -13.2205690988        3.5227588711       -3.5667380288
 C        -8.8576475670       -2.7551935783       -1.0869384377
 C        -8.7493965584       -1.4671572406        1.2795524868
 C        -3.8432524894        0.2549235316       -3.6029349151
 C        -5.0976276438       -0.9758427074       -5.4336565111
 H        -1.1166953238       -1.9629595578       -5.5136592439
 H        -2.4488157835       -0.8122712216       -6.0205421406
 H        -2.4844163099       -2.6000023440       -6.3734435927
 H        -4.1975040069       -0.9989659539       -1.3163305702
 H        -4.1897514596       -2.6769662729       -1.5952572113
 H        -5.6591434000       -2.5919037486        0.3597823525
 H        -6.5387242787       -3.1086258136       -1.1191719548
 H       -10.7708709823       -0.6042861285       -2.5983275997
 H        -9.0872963934       -0.5417682029       -2.9709646967
 H        -9.3443704834        1.5062299380       -3.7008387829
 H        -9.3219017326        1.9155231131       -2.1085044449
 H       -12.5853318082        1.7227634778       -0.9726577310
 H       -13.3550917815        3.2210379954       -0.2962880400
 H       -10.4958865304        2.4502731232        0.4259883207
 H       -11.6929346762        1.5241843255        1.1821429033
 H        -7.5480856425        5.2644697572        2.2324424252
 H        -8.2766476047        4.9248847543        3.8833376910
 H        -8.0378902593        7.7272302083        2.5014314820
 H        -7.3809756514        7.1432436131        3.9490510654
 H       -13.0727799051        9.0584887587        4.2845143993
 H       -12.1689242213        7.5493114031        4.5316303313
 H       -14.5173736309        7.0461269856        3.4636767030
 H       -13.2349822447        6.7138920604        2.3743129434
 H       -14.1960584218       10.6580409191       -0.0113356116
 H       -14.9672475339       10.4857076281       -1.5416182497
 H       -13.1291744106       10.2566322950       -1.4482818837
 H       -15.7378480199        6.1829846110        1.4007844769
 H       -14.2448416048        6.0080707257        0.5656950892
 H       -15.7080292734        6.4505303739       -0.3618361661
 H       -17.2104203257        8.2469853259        0.7766302879
 H       -16.7264784275        9.3190101682       -0.4491426329
 H       -16.4909318876        9.7454408717        1.2782206903
 H       -11.1517765222       10.2169551192        5.0291700934
 H        -9.4134281729       10.4373519741        5.2485555637
 H       -10.1631980174        8.9844937327        5.8772058164
 H        -9.0467655491        9.5445050514        1.7444209794
 H        -7.9827714742        9.7590590599        3.1317875216
 H        -9.3174832109       10.8703366413        2.8274298984
 H       -11.7750323267        3.5296098881        4.0991555311
 H       -11.8663717898        5.2106286475        3.6920367255
 H       -10.5080711749        4.5459754268        4.6887028598
 H        -8.8284291595        2.8993331825        1.7138381358
 H       -10.0017767382        1.9951539959        2.7454320563
 H        -8.8355675220        3.1882025658        3.4432944758
 H       -11.3055564565        5.1753556051       -4.3490275773
 H       -10.5754077175        3.6794132153       -4.8084211843
 H        -9.9008124900        4.3128858455       -3.4777583744
 H       -13.7118309366        4.5211652253       -3.2767541031
 H       -13.8672623631        2.7188706415       -3.2661474126
 H       -13.2118565862        3.6291937611       -4.6594763181
 H        -8.4296220053       -3.6435389307       -0.6150809542
 H        -8.2425922851       -2.7078524927       -1.9813574054
 H        -9.8478036301       -2.8047368436       -1.3661714521
 H        -9.7917784674       -1.6490445140        1.5370110388
 H        -8.4790699347       -0.4705315656        1.6654990000
 H        -7.9951103767       -2.1513670864        1.7352093029
 H        -3.1190859647        0.7582833294       -4.2747345871
 H        -3.2907769214        0.0649899041       -2.6349249851
 H        -4.6857967660        0.9045880765       -3.3811369498
 H        -6.2106995918       -0.7311705270       -5.3789180012
 H        -4.9642968035       -1.8672729870       -6.0272379081
 H        -4.6861289953       -0.0759597721       -5.8226115482
 Na      -11.8662791666        6.3755188746        0.2440376486
