117

 C        -2.0550119095       -2.3493147147       -5.3030658914
 C        -2.9646312486       -2.4078173844       -4.1573057583
 O        -2.6914442378       -3.0481978092       -3.1653485687
 C        -4.1387033607       -1.3562288438       -4.1652328961
 C        -5.2577051736       -1.6960031649       -3.1114375398
 O        -6.4136582799       -1.9795445951       -3.4073336234
 C        -4.8131849961       -1.5873487280       -1.6286152132
 C        -5.9396239035       -2.1278558001       -0.7596252916
 C        -6.9238768363       -1.0435785413       -0.4870845061
 O        -6.5830626952        0.0911176280       -0.4400790767
 C        -8.5617226191       -1.4293515466       -0.2800010519
 C        -9.2648272465       -0.1885168694       -0.7650587607
 O        -9.6453107359        0.6795585819        0.0659510099
 C        -9.4418354036        0.0129851801       -2.2629474270
 C        -9.7356354218        1.4984042303       -2.6786951041
 C       -11.1624376850        1.7217414278       -3.0148842547
 O       -11.9237880685        0.7918955554       -3.2096985592
 C       -11.7666577263        3.1605575709       -3.0459997900
 C       -12.0524451434        3.7953739847       -1.6129675431
 O       -11.4238834012        4.7746464473       -1.3033272333
 C       -13.0214158583        3.2478830773       -0.5694979707
 C       -12.2558405483        2.8283797248        0.7086622559
 C       -12.0069596093        3.8444984190        1.7552904390
 O       -12.7543517333        4.8228684360        1.7637264728
 C       -10.6937916000        3.7808746308        2.8265090769
 C        -9.7102610157        4.9082603634        2.3705075094
 O        -9.8523599613        5.4204886654        1.2791201659
 C        -8.6546432146        5.4437765556        3.3589677587
 C        -8.3576016601        6.9179263923        3.0805455798
 C        -9.2072225695        7.8744049034        3.9433770420
 O        -9.4801058149        7.5454034405        5.0943453839
 C        -9.7565257467        9.2409563144        3.3482431776
 C       -11.1598952996        8.8546681957        2.8025741938
 O       -11.2568824315        8.2922106447        1.6812831776
 C       -12.4518340073        9.0926517682        3.5475612045
 C       -13.6142865943        8.2425754622        2.8999083999
 C       -14.4710289604        9.0382884648        1.9681301607
 O       -14.6784637748       10.2093913247        2.3235027994
 C       -15.0882279370        8.3852452460        0.7094608599
 C       -14.1004137446        8.7227539408       -0.4822996186
 O       -13.4493711132        7.8430125170       -1.0346703463
 C       -14.0042974787       10.1958421420       -0.8562090803
 C       -15.2780690467        6.8362936021        0.8454125490
 C       -16.4556598327        9.0603289316        0.2876926122
 C        -9.9393974898       10.2481140859        4.5019166665
 C        -8.8711487084        9.6844022308        2.1944958835
 C       -11.2931360538        3.9887266632        4.2832953538
 C        -9.9267585883        2.4005241187        2.8109678545
 C       -10.7681662562        4.1318301464       -3.7009791662
 C       -13.1277152262        3.0542923216       -3.7489094907
 C        -8.9504163645       -2.6890428066       -1.1243432779
 C        -8.7561734490       -1.7974037206        1.2003237094
 C        -3.4459535156       -0.0293172073       -3.7988770877
 C        -4.8558421688       -1.3356708110       -5.5393876446
 H        -1.3113972911       -3.1868961236       -5.3946528522
 H        -1.6625715724       -1.3184592584       -5.3710096533
 H        -2.6020932586       -2.5439018100       -6.2460942021
 H        -4.5391726753       -0.5412304973       -1.4735784190
 H        -3.9483907918       -2.1943039153       -1.4163168230
 H        -5.6359595134       -2.4881758384        0.2005628395
 H        -6.4653884265       -2.9694207830       -1.1326458004
 H       -10.2897868369       -0.5328640265       -2.5744938931
 H        -8.5675279398       -0.3729754427       -2.8624538561
 H        -9.0634181693        1.8825786727       -3.4804668884
 H        -9.3657155792        2.0990366687       -1.8841212923
 H       -13.4917121732        2.2851824340       -0.9376417763
 H       -13.8306531922        3.9507475314       -0.3474152578
 H       -11.2914950299        2.3164415195        0.4152439900
 H       -12.8802738551        2.0596130802        1.2287245777
 H        -7.7418331765        4.8903475430        3.1790870323
 H        -8.9186878730        5.3032216233        4.3795386509
 H        -8.6851586042        7.1028489474        2.1173676078
 H        -7.2546968789        7.1597723542        3.0675112982
 H       -12.6797121264       10.1198078367        3.4223105232
 H       -12.4211735779        8.9439095402        4.6023367190
 H       -14.1973680000        7.9553790394        3.7357736247
 H       -13.2644989114        7.2909514438        2.5271345307
 H       -13.7893477554       10.7969549299        0.0238396437
 H       -14.9332380133       10.4837373684       -1.2670518987
 H       -13.2762279730       10.3205582118       -1.6993218517
 H       -15.9237709801        6.5936447258        1.7010025137
 H       -14.3687042812        6.2668878049        1.0658683882
 H       -15.7750303235        6.3756242118        0.0132937291
 H       -17.2675593109        8.7871996770        0.9477966987
 H       -16.6241758805        8.8859982747       -0.7292728140
 H       -16.5207102393       10.1906577087        0.3047306361
 H       -10.4323823069       11.1642017676        4.0979016201
 H        -8.9773048542       10.5217171670        4.9311693628
 H       -10.5258702907        9.8418435632        5.2304905232
 H        -8.8289459463        9.0173142183        1.3117175853
 H        -7.8813222926        9.7334975043        2.5250701063
 H        -9.1093837922       10.7164546790        1.8115803445
 H       -12.2509006840        3.4372810547        4.5287112932
 H       -11.5100208288        5.0297228324        4.4811343611
 H       -10.5758352047        3.6536620949        4.9893011054
 H        -9.7588655296        2.0716842314        1.7623949403
 H       -10.5304551805        1.6591010799        3.2958588892
 H        -8.9806037738        2.3814533509        3.3655762549
 H       -11.0670017778        5.2108992026       -3.7652975166
 H       -10.4857992042        3.8452202455       -4.7215607425
 H        -9.8718579405        4.1068433996       -3.0924123241
 H       -13.3608340897        4.0393458717       -4.2381851807
 H       -13.9771645285        2.8673205666       -3.1006821845
 H       -12.9864040575        2.2396933205       -4.5069229536
 H        -8.6609074017       -3.5519417073       -0.5544657266
 H        -8.6165479515       -2.6673449362       -2.1379532989
 H        -9.9968108185       -2.8474336416       -1.0848872058
 H        -9.7411421617       -2.2497439081        1.3924606282
 H        -8.6420598438       -0.8727197497        1.7388664052
 H        -8.1248624451       -2.6066190705        1.5902574727
 H        -2.9475324201        0.2966637855       -4.7182624186
 H        -2.7180118022       -0.0806439903       -2.9765520266
 H        -4.1475830309        0.7976416951       -3.5044566304
 H        -5.3854237522       -0.3953362144       -5.5220170801
 H        -5.5690952078       -2.1575526609       -5.5875647992
 H        -4.2665030400       -1.3945534457       -6.5213122916
 Na      -11.6475049027        6.4363957726        0.0678379119
