117

 C        -1.9704473010       -2.7960763541       -5.3324519636
 C        -2.8956333618       -2.6101371391       -4.1485759070
 O        -2.9228418409       -3.3835635331       -3.2168835156
 C        -4.0426102730       -1.4534314609       -4.1783748780
 C        -5.1458040594       -1.7191330383       -3.0653232415
 O        -6.3212490061       -1.8423470502       -3.4368516651
 C        -4.7624319458       -1.7889988187       -1.5459276782
 C        -5.8937808400       -2.1021288967       -0.5665455093
 C        -6.9762431901       -1.0101752701       -0.5030861876
 O        -6.7006245548        0.1751193072       -0.5133235369
 C        -8.4726969940       -1.3988327168       -0.3630404319
 C        -9.3016185373       -0.1707385159       -0.6804872048
 O        -9.9083170428        0.5329847266        0.1652476152
 C        -9.0537472453        0.3239963658       -2.1267045407
 C        -9.6406630694        1.7397982229       -2.4687831395
 C       -11.1877713488        1.7469107638       -2.5925596739
 O       -11.9367707332        0.8313014594       -2.3121515775
 C       -11.8121864600        3.1447506033       -2.9930200059
 C       -12.0883038973        3.9132266580       -1.6359517321
 O       -11.7938972607        5.0667843197       -1.4448764621
 C       -12.8582699106        3.1048414006       -0.6214476766
 C       -12.0599099764        2.7204072409        0.5886441422
 C       -11.9305775477        3.8554404844        1.5637824451
 O       -12.7335673433        4.8237864727        1.7024878035
 C       -10.8363185252        3.7526795391        2.6821471529
 C        -9.7708504299        4.8671410647        2.3497311913
 O        -9.7250381013        5.2972297900        1.2232436704
 C        -8.8925222984        5.3852909229        3.4806669528
 C        -8.2769004557        6.8208989819        3.3262003711
 C        -9.1702320404        7.9338653919        3.9900887857
 O        -9.4705863152        7.9358755596        5.1843295000
 C        -9.6602213933        9.1895847721        3.1513874676
 C       -11.1065329717        8.7110439823        2.5940194856
 O       -11.0583852058        7.9903551668        1.5839902365
 C       -12.3525043668        8.9561381334        3.4110048427
 C       -13.7361983228        8.3915936285        2.8796364576
 C       -14.5136272390        9.2905753842        1.8936677352
 O       -14.6403806082       10.4893819470        2.0276004461
 C       -15.2399290155        8.6424877171        0.6959565154
 C       -14.1539117304        8.7398832784       -0.4139382787
 O       -13.3139236986        7.8383799667       -0.5230910460
 C       -14.0544338606        9.9442751346       -1.2250937166
 C       -15.4953898108        7.1235501720        0.8751039160
 C       -16.5493437753        9.3967709169        0.3987015241
 C        -9.6896516166       10.3856261109        4.1316522169
 C        -8.7508726199        9.4304940002        1.9376808078
 C       -11.5417365687        4.0404362328        4.0695417776
 C       -10.0391846527        2.4013771241        2.7761649440
 C       -10.8473732856        3.8175109269       -3.9411013186
 C       -13.1969417518        2.9221674207       -3.6997706699
 C        -8.8482812763       -2.6021799262       -1.2201330698
 C        -8.8291137002       -1.7470091466        1.1070102470
 C        -3.3982684694       -0.0956116069       -3.9035091006
 C        -4.7246935938       -1.4317511140       -5.5576900370
 H        -1.1767942959       -3.5594160341       -5.1612481425
 H        -1.4607490759       -1.8550689337       -5.6142026750
 H        -2.5200230750       -3.0842275076       -6.1698877474
 H        -4.3549979182       -0.8386198487       -1.3092401541
 H        -3.9517112459       -2.5395032860       -1.4105167086
 H        -5.4380643584       -2.1605456941        0.4805845756
 H        -6.4754677967       -3.0606889984       -0.6230593680
 H        -9.4960757596       -0.3029487626       -2.9243038128
 H        -7.9775602955        0.3387105239       -2.3150693218
 H        -9.1460825375        2.1124288241       -3.3488994051
 H        -9.3194259310        2.4790350128       -1.6889112578
 H       -13.2328208184        2.2003732353       -1.0343378562
 H       -13.7416560368        3.6749481549       -0.3291469256
 H       -11.0758016701        2.3467687074        0.2820267811
 H       -12.5934758343        1.9535000854        1.1128752037
 H        -7.9865074315        4.7321249432        3.6429366201
 H        -9.4331900523        5.3588993316        4.4830571552
 H        -8.0640185301        7.0590996033        2.2926453526
 H        -7.3191470352        6.8121757732        3.8641569197
 H       -12.4908683454       10.0755925927        3.5264337058
 H       -12.0898474364        8.6247408727        4.4519974616
 H       -14.4044134540        8.2516285302        3.7409690427
 H       -13.5340532745        7.3514751971        2.4592023067
 H       -14.1288166083       10.7735039057       -0.5229916329
 H       -14.8492387766        9.9552783433       -1.9632525303
 H       -13.0932919838       10.0800013205       -1.8399709530
 H       -16.0298520264        6.8981567394        1.8076816300
 H       -14.6305791656        6.5102943650        0.7832847246
 H       -16.2012796102        6.7840433944        0.0630008288
 H       -17.3551908994        9.0921646010        1.1212735556
 H       -16.9687196063        9.2704832538       -0.5311704101
 H       -16.4984031603       10.4785439394        0.5989859389
 H       -10.4000084722       11.1670371993        3.6842022988
 H        -8.6716212663       10.8749376408        4.1624088709
 H       -10.0320191616       10.1124337559        5.0434129517
 H        -8.9361757322        8.6629947650        1.1509431467
 H        -7.7208074123        9.4538784549        2.1617329973
 H        -8.9292172079       10.3682816797        1.4261648978
 H       -12.2124274470        3.1375762093        4.2617170557
 H       -12.1244178516        4.9577747808        4.0063057625
 H       -10.8589124161        4.1461661580        4.9206635652
 H        -9.2289526091        2.4594685598        2.0637379639
 H       -10.6402309571        1.5368556669        2.5462741705
 H        -9.5771800967        2.1742107066        3.7831780545
 H       -11.2371410987        4.7670188678       -4.2660584480
 H       -10.8126688521        3.2020600890       -4.8294935129
 H        -9.8746902831        4.1627888650       -3.6257667328
 H       -13.8195307344        3.7388655355       -3.4825559764
 H       -13.6095131766        1.9983310094       -3.2503456570
 H       -13.1023044900        2.7032255806       -4.7598157402
 H        -8.4441702658       -3.4811483877       -0.7434620096
 H        -8.3949875987       -2.4236570421       -2.2004703352
 H        -9.9663743036       -2.8120197146       -1.3591521352
 H        -9.9113536698       -1.8804441493        1.3039449536
 H        -8.5207475267       -0.8917622429        1.7044055710
 H        -8.3337624954       -2.6298249476        1.4942572911
 H        -2.5861283161        0.1669477645       -4.5698502723
 H        -3.0680865792        0.0442017417       -2.9091709896
 H        -4.1458117533        0.6716175102       -4.1246041664
 H        -5.7602738356       -1.2372394057       -5.5406206872
 H        -4.5918835042       -2.3966711412       -6.0598485321
 H        -4.0702050156       -0.8742839412       -6.2589699117
 Na      -11.7494859993        6.5211620543        0.3117451175
