117

 C        -3.5443447272        1.9002930345       10.3368995316
 C        -4.1665767292        2.5287391033        9.1562982146
 O        -5.1682064451        3.2658438051        9.1874474598
 C        -3.3033402896        2.4936051536        7.7053704748
 C        -4.2482428107        1.9155127624        6.5799602047
 O        -3.9746103102        0.8747693736        6.0211161338
 C        -5.5244812969        2.7586349586        6.2706165768
 C        -6.6181909086        1.8647363572        5.6897824000
 C        -7.8175770713        2.6906582847        5.0580078923
 O        -8.1783006841        3.7361004883        5.5588971701
 C        -8.7081194775        2.1587412812        3.9939118468
 C        -9.7917541658        3.2067436753        3.5914630680
 O       -10.9462656359        2.7774432616        3.4507939739
 C        -9.4836405044        4.7597646298        3.2117732342
 C       -10.7032765636        5.6139136977        3.0637476691
 C       -11.2366917555        5.7011797771        1.6400910324
 O       -10.6591694579        5.2149772113        0.6678412185
 C       -12.6024538912        6.4051658902        1.3486890076
 C       -13.1227476198        5.7833049277       -0.0437219851
 O       -12.5210795513        6.0538895545       -1.1031191970
 C       -14.3448701242        4.8727299464       -0.1158258230
 C       -14.0612916630        3.7709378340       -1.1059938777
 C       -13.7243985070        2.3769800770       -0.5537512052
 O       -14.2407347310        1.9832174537        0.4536101946
 C       -13.0819043846        1.3650883232       -1.6713807118
 C       -12.3417613587        2.0487853649       -2.8554125179
 O       -11.5950226902        3.0221016844       -2.7860465044
 C       -12.4462087953        1.2762127845       -4.1096027321
 C       -11.6276112286        1.7279633411       -5.2773268998
 C       -12.3790030858        2.4010142802       -6.3554135681
 O       -13.5765716497        2.4404923041       -6.3332015351
 C       -11.5448484962        2.9476392076       -7.5415506814
 C       -10.7421688982        4.1051638371       -6.8398393609
 O        -9.5746281190        3.8418625419       -6.5603188843
 C       -11.2428916796        5.6214341344       -6.7373323012
 C       -10.0398991470        6.4617201771       -6.2136127613
 C        -9.8571986156        6.1363849532       -4.7424668615
 O       -10.8441262016        6.0529917560       -4.0413625979
 C        -8.4428494362        5.8138534341       -4.2744678220
 C        -8.3340555493        4.4193676458       -3.6337529836
 O        -8.9457710538        4.2284700698       -2.5590413889
 C        -7.6197718390        3.2733011538       -4.3043807193
 C        -7.3089556600        5.9621788173       -5.2510482242
 C        -8.2147099363        6.9362027733       -3.1022882185
 C       -10.5514920959        1.8450779785       -7.9469051191
 C       -12.3956377473        3.5808976258       -8.7244831712
 C       -11.8754735622        0.5018563316       -0.9562361748
 C       -14.1831319620        0.4376500126       -2.0958094128
 C       -13.5513158831        6.0576505884        2.5207813822
 C       -12.3943871012        7.9103516516        1.1872344213
 C        -7.9292744547        1.8548770838        2.6240780251
 C        -9.4718238310        0.9694738969        4.5715330041
 C        -3.0424049801        4.0771668144        7.3215554728
 C        -2.0451180052        1.6834343238        7.7778858290
 H        -3.6966071465        0.7687490098       10.2980347274
 H        -4.1195850785        2.1687423067       11.2230694003
 H        -2.4417228292        2.1079942706       10.4002784916
 H        -5.1696317393        3.5866245792        5.5783831972
 H        -5.8197585671        3.3804052460        7.2252244862
 H        -7.0337856278        1.1654946139        6.4233518051
 H        -6.1182789630        1.3099078975        4.8731312105
 H        -8.9900176824        4.6750253672        2.2172727731
 H        -8.8651089057        5.2434443095        4.0070292048
 H       -10.5218236845        6.5860712368        3.4615493212
 H       -11.5725362190        5.2509949605        3.6502729177
 H       -15.2195603318        5.3600145771       -0.4855433002
 H       -14.7406419007        4.5196203432        0.8586132292
 H       -13.3368902802        4.1763867199       -1.8282140501
 H       -14.8438659488        3.6366194692       -1.7898416140
 H       -13.5141640408        1.2898394507       -4.2274122223
 H       -12.3690557159        0.2019177023       -3.8268715840
 H       -11.1109024861        0.9268394829       -5.8151683817
 H       -10.8546144894        2.4222670360       -4.8918695799
 H       -12.0850926896        5.6945061911       -6.0193830795
 H       -11.6718619924        5.9196140225       -7.6919875633
 H       -10.2683957296        7.5758378806       -6.2784415679
 H        -9.1806687581        6.3652123321       -6.9079553723
 H        -8.0639714880        2.3005631533       -4.0148103545
 H        -6.5707791942        3.1702805642       -3.9811081574
 H        -7.6367067536        3.1849841942       -5.4031720520
 H        -7.1837255778        6.8927235556       -5.6017829475
 H        -7.5082339270        5.3374002801       -6.1284847460
 H        -6.3434064321        5.6491889928       -4.8037889534
 H        -8.8401151599        6.7414668029       -2.1703528549
 H        -8.4903423781        7.8850155696       -3.5167631204
 H        -7.1499015129        6.8346512709       -2.8373509725
 H       -11.0609007535        0.8620196679       -8.1737284244
 H        -9.7333545911        1.6409187323       -7.2812110273
 H       -10.0412481466        2.1092288238       -8.8399133639
 H       -12.1139182003        4.5642001571       -9.1266268981
 H       -13.4621824795        3.7357028305       -8.4261614484
 H       -12.2318643722        2.9025358787       -9.5383598772
 H       -12.3433052088       -0.0568224642       -0.1299521860
 H       -11.1045852517        1.0957486450       -0.5514076759
 H       -11.4683051899       -0.2828010121       -1.5682354527
 H       -14.6755878030       -0.1646055596       -1.2727885176
 H       -13.8100226410       -0.4040214523       -2.6428498870
 H       -14.9426177523        1.0395839004       -2.5504668125
 H       -14.5240109979        6.5388033875        2.2853272935
 H       -13.2348044795        6.4555070890        3.5074454511
 H       -13.6619048531        4.9744741464        2.6704868140
 H       -12.0209831688        8.0756361211        0.1833956062
 H       -11.6725202554        8.3628710601        1.8596025802
 H       -13.3365146819        8.3871561436        1.2401180206
 H        -7.0652501049        1.2977593243        2.8940718688
 H        -7.5746337175        2.7524083212        2.2251797476
 H        -8.5865294365        1.3775810672        1.9126889626
 H       -10.1977864090        1.3034995976        5.3386496070
 H        -8.8818251984        0.0634367184        4.7932010186
 H       -10.1206168431        0.5013694853        3.8051200400
 H        -3.8936169549        4.5958619642        7.7309052961
 H        -2.8626538663        4.2660724031        6.2797599407
 H        -2.1098722058        4.3992204993        7.8752675576
 H        -2.3001666253        0.7506361381        8.2838871481
 H        -1.3267051373        2.1968570989        8.4058056464
 H        -1.6414275842        1.4290766307        6.7630742632
 Na      -10.8464242448        4.9721548842       -1.7446864994
