117

 C        -2.0907413730       -2.8493449442       -5.2414677333
 C        -3.0670956898       -2.7823365058       -3.9930753553
 O        -3.0130330833       -3.5953393109       -3.0948486391
 C        -4.0757030036       -1.6117584380       -4.0979789728
 C        -5.1638851222       -1.7028810117       -2.9816775291
 O        -6.3458414583       -1.7330055679       -3.2811810065
 C        -4.6519895250       -1.7650098437       -1.5299370928
 C        -5.8069831887       -2.2577295187       -0.7095229455
 C        -6.8439396954       -1.0598411416       -0.5001649175
 O        -6.3972131037        0.0960925133       -0.4498729861
 C        -8.3227923387       -1.3848156058       -0.3400781335
 C        -9.2483071575       -0.1061616652       -0.7803065749
 O       -10.0396220801        0.2920257184        0.0096719067
 C        -9.0726228046        0.4503666049       -2.1978821079
 C        -9.6407742725        1.8542788053       -2.4539885507
 C       -11.1648789891        1.7886173009       -2.4832876995
 O       -11.7789583687        0.9941572130       -1.8360088979
 C       -11.9719524544        3.0744935309       -3.0669393547
 C       -12.2156577483        3.9097725914       -1.8069454655
 O       -11.7813531348        5.0751534829       -1.7024996299
 C       -13.0333807174        3.2814095199       -0.6906221404
 C       -12.0340833384        2.6940243504        0.4228557914
 C       -11.9093533555        3.7489195706        1.5658940674
 O       -12.7181366826        4.6291355121        1.5570208561
 C       -10.9216071847        3.7233221706        2.7747624984
 C        -9.8255503313        4.9873724581        2.5368890391
 O        -9.7416735702        5.6333771042        1.4940419171
 C        -8.8884335880        5.4476396560        3.6556901303
 C        -8.2605145716        6.8143211735        3.3714007570
 C        -9.1618060724        7.9589484299        3.9895480939
 O        -9.5531641134        7.8132859464        5.1039652048
 C        -9.5996971755        9.1921302560        3.0456976934
 C       -10.9972661343        8.7633764678        2.5125070096
 O       -11.1341348025        8.0024111756        1.6018580529
 C       -12.2848843856        9.1267337998        3.3148900925
 C       -13.4900301568        8.4091286449        2.7684599575
 C       -14.3102398338        9.3809437375        1.9258666123
 O       -14.2116816965       10.5541046064        2.0648389787
 C       -15.2490121760        8.6907894388        0.7737429738
 C       -14.1963922350        8.7650268770       -0.3919998904
 O       -13.2078371896        8.0688203314       -0.4474986305
 C       -14.2077608467        9.8574670435       -1.4899913401
 C       -15.7673560776        7.2603235803        1.0407869246
 C       -16.4619111606        9.6215763774        0.4183446658
 C        -9.6655102040       10.5768010817        3.8802273405
 C        -8.7206753482        9.4757119065        1.8076371589
 C       -11.8080094062        3.9742553563        4.0460834587
 C       -10.0644845109        2.4613902341        2.8479245077
 C       -11.2583036991        4.0271804100       -4.0202931458
 C       -13.2588089750        2.6194385551       -3.7350644075
 C        -8.7940873511       -2.4951487758       -1.3003549356
 C        -8.5588528831       -1.7801412665        1.1626082472
 C        -3.2879259508       -0.2773495703       -3.8569624022
 C        -4.6866365292       -1.5850541041       -5.5225057040
 H        -1.0833886988       -3.2299983396       -5.0242794468
 H        -1.8625397472       -1.8829936400       -5.7324901401
 H        -2.5553759522       -3.4559599629       -6.0984692502
 H        -4.3294282580       -0.7523863600       -1.1938104392
 H        -3.8092448072       -2.4087043801       -1.5235106567
 H        -5.5398910678       -2.5657833027        0.2674036563
 H        -6.3645284569       -3.0535464374       -1.1438028103
 H        -9.5887950838       -0.1789059779       -2.9337001768
 H        -8.0263661147        0.4511034272       -2.5118014344
 H        -9.1628207980        2.2191463690       -3.3758727031
 H        -9.3087943634        2.5078626895       -1.6741153853
 H       -13.7165860930        2.4687406173       -1.0238563669
 H       -13.6879585358        4.0263883749       -0.1997030577
 H       -11.0406486860        2.4220505377        0.0317231702
 H       -12.5363777462        1.7744071134        0.8536055089
 H        -8.1228196189        4.7305351861        3.8587362711
 H        -9.4200332470        5.5429907622        4.5707062287
 H        -8.1002349260        6.9201405456        2.2671881248
 H        -7.3184651350        6.9770986516        3.8561595215
 H       -12.5580814392       10.1426680372        3.4259659874
 H       -12.0595126363        8.7890654805        4.3045194908
 H       -14.1644135281        8.0815417955        3.5735740033
 H       -13.1294163977        7.5701830766        2.2600224832
 H       -14.4172770587       10.8874737427       -1.1823535307
 H       -14.7656521619        9.5000085952       -2.3822752662
 H       -13.2198098596        9.9013761528       -1.8502773547
 H       -16.3434132859        7.1743894111        1.9714053207
 H       -14.9397064710        6.5086976901        0.9836203723
 H       -16.4378864431        6.9840493489        0.2422489255
 H       -17.1814606775        9.9485629591        1.1410621206
 H       -17.1741085309        8.9989417757       -0.2276543420
 H       -16.2459376482       10.4934144268       -0.1299229844
 H        -9.7990984235       11.3964241561        3.2489069138
 H        -8.7519688185       10.7008712400        4.4139618625
 H       -10.5420518129       10.5332270735        4.6157606560
 H        -8.7333817031        8.6929341801        1.1078831101
 H        -7.6607815081        9.7346590354        2.0710148767
 H        -9.0367083799       10.3180143696        1.2309090250
 H       -12.4929233521        3.1786364471        4.1752384842
 H       -12.2598983409        4.9935754563        4.0107290148
 H       -11.1134418510        4.0317508049        4.9205152768
 H        -9.0908736632        2.5071543413        2.3334934063
 H       -10.6559419104        1.5774156850        2.4624361467
 H        -9.8169870449        2.2330548791        3.8728610759
 H       -11.7280912317        4.9758245999       -4.1863800706
 H       -10.9713476267        3.5941401918       -4.9658597571
 H       -10.3734177995        4.4452093824       -3.5499236373
 H       -14.0339783562        3.4110765906       -3.5559164235
 H       -13.5820065743        1.6237389868       -3.4123549913
 H       -13.0428888604        2.4951126057       -4.8019710974
 H        -8.5612751819       -3.5215018396       -0.9434229897
 H        -8.2914994638       -2.3348821974       -2.2473879570
 H        -9.8328205455       -2.3579537079       -1.4941595064
 H        -9.5961785875       -1.9855864199        1.4053569169
 H        -8.2093144290       -1.0868204166        1.9597282737
 H        -7.9557953511       -2.7031209813        1.3185586298
 H        -2.4559882161       -0.1793152982       -4.5667430225
 H        -2.7566993566       -0.3341449681       -2.8777260743
 H        -3.8073086205        0.6578638930       -3.9613519563
 H        -5.5841668333       -0.9366300025       -5.3942511242
 H        -5.2084193780       -2.4950601239       -5.8278163946
 H        -4.0216735898       -1.4201399470       -6.3006991850
 Na      -11.9588629025        6.1339424193        0.2824571955
