117

 C        -2.0474461380       -3.0214744611       -5.1623484065
 C        -3.0814717273       -2.8692000949       -4.0527946498
 O        -3.0571968093       -3.6043773630       -3.0985555063
 C        -4.0644095737       -1.6403035557       -4.1151121174
 C        -5.0984223806       -1.7331400413       -2.9630368965
 O        -6.3216390441       -1.6330100970       -3.2160053415
 C        -4.6947572233       -1.8401421288       -1.4919564838
 C        -5.7627658126       -2.2988750166       -0.5779286675
 C        -6.7910251392       -1.1141943788       -0.4967349746
 O        -6.3116188451        0.0239912835       -0.3933389845
 C        -8.2915370495       -1.3853978776       -0.3904440728
 C        -9.1513867587       -0.1008003708       -0.7292615544
 O       -10.0541597429        0.2894199570        0.0062625403
 C        -8.9742961267        0.3914423532       -2.2019384303
 C        -9.5862236654        1.8408167565       -2.5018865041
 C       -11.1586918665        1.9111469197       -2.4112763021
 O       -11.7764423767        1.0090246132       -1.8934367313
 C       -12.0241567467        3.1232636168       -3.0620867710
 C       -12.3437196376        3.9565841966       -1.7870736883
 O       -11.7990637979        5.0502155952       -1.6978259047
 C       -13.0294070190        3.2696180137       -0.6102096167
 C       -12.0510213884        2.7690398064        0.4283731928
 C       -12.0051457492        3.7692518972        1.6212166359
 O       -12.9516779459        4.5400748573        1.7794456857
 C       -10.8654156641        3.7648594696        2.7736348002
 C        -9.9722147619        5.0106654202        2.6216115528
 O       -10.0002570095        5.6579005839        1.5896207280
 C        -8.9303915573        5.4203703958        3.7524482906
 C        -8.2878144321        6.7758025819        3.4028863607
 C        -9.1384483593        7.9460382770        3.9310854269
 O        -9.6488691826        7.8160273794        5.0333300298
 C        -9.6391302813        9.2284380625        3.0062412430
 C       -11.0008221233        8.7519236555        2.5042699911
 O       -11.0092499204        8.0187111435        1.5059836400
 C       -12.2510372261        9.1066772771        3.3075064987
 C       -13.5226624495        8.4078762261        2.8123394771
 C       -14.3223197236        9.3781082984        1.8893657417
 O       -14.1415846858       10.5474178060        1.9847906779
 C       -15.1500455186        8.8112613913        0.7065753015
 C       -14.1096041719        8.8301995591       -0.5025963239
 O       -13.1894480543        7.9959738056       -0.4374363228
 C       -14.3523370937        9.7847904132       -1.6059511076
 C       -15.7009699927        7.4803949485        1.1982026188
 C       -16.3593646567        9.7929674691        0.5234145128
 C        -9.6492400869       10.5970453590        3.7751060924
 C        -8.6639689263        9.4582099634        1.8549459698
 C       -11.7293436279        3.9746841172        4.0155069970
 C       -10.0149032383        2.4810651845        2.8468641841
 C       -11.3812662147        3.9908560119       -4.1247813292
 C       -13.2864086657        2.4207242410       -3.8169708171
 C        -8.7912274290       -2.4750757801       -1.3481938386
 C        -8.4547607049       -1.7146354893        1.0294030492
 C        -3.2215474318       -0.4201699747       -3.8908526463
 C        -4.7756788132       -1.5628954103       -5.4699241928
 H        -1.0708119569       -3.2721149761       -4.7258378169
 H        -1.8097830881       -2.1157126954       -5.7502488255
 H        -2.3417767267       -3.7079874238       -5.8787287740
 H        -4.4306623963       -0.7878333223       -1.2566902727
 H        -3.7450221798       -2.4652255983       -1.4098758587
 H        -5.4450704253       -2.3962238580        0.4271512891
 H        -6.3042732829       -3.1795746442       -0.8870294368
 H        -9.4970980558       -0.3677522974       -2.8797161496
 H        -7.9631536840        0.3958144378       -2.5177433648
 H        -9.2201932311        2.1406339947       -3.4632228106
 H        -9.0473236685        2.4970997618       -1.7465959744
 H       -13.6360602313        2.4643562283       -0.9492806963
 H       -13.7396994819        3.9597661991       -0.0530160520
 H       -11.0363106136        2.7735883838        0.0491088112
 H       -12.3562278860        1.7649796341        0.7417070142
 H        -8.2070416310        4.6675924456        3.8017771435
 H        -9.3021466858        5.5055238587        4.7695430556
 H        -8.1319030921        6.8061954404        2.2636532340
 H        -7.3438405427        6.9986307215        3.8791989081
 H       -12.3986317985       10.1651659797        3.1195345626
 H       -12.0211125239        9.0545389280        4.3575351604
 H       -14.1669465779        8.0043931889        3.5938006776
 H       -13.0941899566        7.6090791398        2.2259068084
 H       -14.5229880475       10.6737448829       -1.1049543735
 H       -15.1492782477        9.4598203657       -2.2453372994
 H       -13.4926844995       10.0079158928       -2.2451182767
 H       -16.3347085351        7.6368452564        2.0565210869
 H       -14.9299281856        6.8105164957        1.3821470887
 H       -16.3329897577        6.9971467352        0.3967362654
 H       -17.0234544318        9.9321194482        1.4787844435
 H       -17.1397063104        9.4345996029       -0.0727479900
 H       -16.1391177036       10.8142466926        0.2146222216
 H        -9.7365921256       11.4282507648        3.0627909689
 H        -8.6499627417       10.6642288924        4.2509115606
 H       -10.3415442147       10.6614287178        4.4865990915
 H        -8.7022082930        8.5556003802        1.2096816059
 H        -7.6171204016        9.6830224613        2.1198986248
 H        -8.9151022358       10.2179436215        1.1482215193
 H       -12.3992255515        3.1606274284        3.9509997255
 H       -12.1831028870        4.9222523163        4.0184545173
 H       -11.1450905087        3.9231661764        4.9300392615
 H        -9.2269741552        2.4226778537        2.1726225082
 H       -10.5283808259        1.5298137447        2.8548738693
 H        -9.5156061963        2.6240977908        3.8401602630
 H       -12.1121094301        4.6477575711       -4.5023626097
 H       -11.0187558925        3.3946212997       -4.9661583008
 H       -10.6284393614        4.7702289739       -3.8679969935
 H       -14.0790992560        3.0862714974       -3.9667361023
 H       -13.5079228499        1.5958270245       -3.0543909030
 H       -13.0219821203        1.8755297676       -4.7352240029
 H        -8.3838599870       -3.4010838934       -1.0489471236
 H        -8.4845913398       -2.3454940016       -2.3579752699
 H        -9.9312662626       -2.4131528837       -1.3126612637
 H        -9.4903520378       -1.9265406779        1.3017307484
 H        -8.1420518552       -0.9450893557        1.7613844545
 H        -7.8086248192       -2.5451552432        1.2510773717
 H        -2.5005671150       -0.1505509715       -4.6988400779
 H        -2.5934176612       -0.5899885309       -3.0188047743
 H        -3.7844153468        0.5147140009       -3.7518071865
 H        -5.3322241810       -0.6590549674       -5.5813099358
 H        -5.6127058450       -2.2613985254       -5.6003456001
 H        -4.0919776334       -1.8106381160       -6.2769082882
 Na      -11.9444627188        6.2364311634        0.1418510818
