117

 C        -2.0448653572       -3.2805406544       -5.1520321429
 C        -3.0825119591       -3.0639474414       -4.0505866720
 O        -3.1526967509       -3.8701739765       -3.1611279278
 C        -4.0330675987       -1.7634852942       -4.0632065672
 C        -5.0134361974       -1.7108322256       -2.9107774909
 O        -6.1778660806       -1.4893999861       -3.0290073705
 C        -4.5229996502       -2.0566093792       -1.4877872482
 C        -5.7068044107       -2.2319735102       -0.5088315582
 C        -6.7362891545       -1.0403357650       -0.4695186542
 O        -6.3925059197        0.1166973045       -0.3991850565
 C        -8.2740225225       -1.3804404337       -0.4241964684
 C        -9.1203533658       -0.0149860487       -0.8390881911
 O        -9.7384242770        0.5063131635        0.0458236970
 C        -8.9103449169        0.5499829450       -2.2736533690
 C        -9.6043321415        1.8835547968       -2.5781520040
 C       -11.0905990029        1.7284854029       -2.5508930319
 O       -11.6618683712        0.8205546639       -2.0302364548
 C       -12.0979819879        2.9206754034       -3.0959465711
 C       -12.2842803803        3.8216841915       -1.8375868321
 O       -11.9779080667        5.0230957111       -1.7702034199
 C       -13.0078289631        3.1775117843       -0.6116213619
 C       -11.9176212700        2.9945249132        0.5524233699
 C       -12.2733394733        3.7927256124        1.8764240079
 O       -13.1447878573        4.6142429092        2.0544658955
 C       -11.0703490068        3.7887124708        2.9394473473
 C       -10.1968530241        5.0987126064        2.6578905480
 O       -10.3533442153        5.7302273681        1.6056865739
 C        -9.1041974319        5.4113415937        3.6228433413
 C        -8.3906950090        6.7710333874        3.4665746095
 C        -9.2754563597        7.9601678435        3.9449028524
 O        -9.8692346541        7.9479865190        4.9791031693
 C        -9.4967653366        9.1604451696        2.8961086581
 C       -10.8687280399        8.7930482695        2.3267325222
 O       -11.0237710713        8.2746829738        1.2505910628
 C       -11.9743213199        9.0551688138        3.3470391035
 C       -13.3624002632        8.5944591723        2.8304510350
 C       -14.0556878399        9.6067841901        1.9430559280
 O       -13.8797930274       10.7960228183        1.9694599615
 C       -15.1080856421        9.0032022588        0.7632336698
 C       -14.3428460867        8.7561094493       -0.5902966210
 O       -13.4612490869        7.9500400286       -0.6588119607
 C       -14.6150050791        9.6668313749       -1.8251667647
 C       -15.7300796505        7.5645787982        1.0603616846
 C       -16.2212120292       10.0679130566        0.6130354011
 C        -9.5171107434       10.4586020756        3.8404252238
 C        -8.4448902669        9.2449954128        1.7965489590
 C       -11.5741519262        3.7726965135        4.4429151801
 C       -10.1410725045        2.5718995655        2.7262510516
 C       -11.4114099773        3.7302761522       -4.2297455347
 C       -13.3895162002        2.2426410200       -3.6132914853
 C        -8.6871693483       -2.5694307104       -1.3051464491
 C        -8.5998225675       -1.7384714215        1.0065354300
 C        -3.0941967047       -0.5331854768       -3.9189962146
 C        -4.8166231060       -1.5984821561       -5.4098326161
 H        -1.1082982027       -3.3702790742       -4.6926473257
 H        -1.8628951339       -2.5734869831       -5.9039328896
 H        -2.3421132782       -4.2044901320       -5.7111011390
 H        -3.8233798845       -1.2671007847       -1.1776884468
 H        -3.9831340109       -2.9629631225       -1.5229749204
 H        -5.2856990198       -2.1390333349        0.5580071885
 H        -6.2756404843       -3.1813211236       -0.6383393983
 H        -9.2163206508       -0.2011892602       -2.9758163272
 H        -7.7775030939        0.6453274530       -2.4469851083
 H        -9.2299328525        2.2892955435       -3.5643365756
 H        -9.3270490876        2.5764986195       -1.8046188190
 H       -13.5525627434        2.2436596155       -0.8825733424
 H       -13.7299727444        3.8704502280       -0.2742012051
 H       -10.9869018462        3.4710119425        0.2305899359
 H       -11.7349575116        1.9603471203        0.8080735326
 H        -8.3108490630        4.5691757451        3.4968345222
 H        -9.4214086849        5.2655166408        4.6767084741
 H        -8.1554035471        6.8850497024        2.4439208695
 H        -7.4297346920        6.7960223063        4.0310898854
 H       -11.9383836298       10.0732919918        3.8308995985
 H       -11.7884962604        8.3589456677        4.2111241287
 H       -13.9978000527        8.4321406798        3.7276340234
 H       -13.1487533502        7.6188926791        2.3352667683
 H       -14.1341315578       10.6862457278       -1.7719768718
 H       -15.7040049494        9.7201054281       -2.0465373342
 H       -14.1498637516        9.2096526813       -2.6627267423
 H       -16.0529012999        7.5599281253        2.1073019201
 H       -14.9235100658        6.7821996578        0.8850766258
 H       -16.5430027090        7.3540797949        0.4319467537
 H       -16.9957465017        9.9188614048        1.2605550446
 H       -16.8747568742       10.0813467657       -0.3033058074
 H       -15.8317471600       11.0481150555        0.7626201987
 H       -10.2068133296       11.1905982152        3.4394210771
 H        -8.5501806324       10.9056584924        3.9896430107
 H        -9.8430409204       10.0721674475        4.9160608713
 H        -8.4855667479        8.4820516828        1.0548745122
 H        -7.4253099333        9.2923093593        2.2005067833
 H        -8.5399640052       10.1731301490        1.1991034987
 H       -12.1651231888        2.8983674240        4.6642926008
 H       -12.0673623919        4.7397282341        4.6541383098
 H       -10.6592000817        3.7611965359        5.0252493105
 H       -10.1014399492        2.1066192314        1.7122367533
 H       -10.5800537866        1.7581161135        3.3077364807
 H        -9.1533343993        2.7082985254        3.0399528611
 H       -12.0285097505        4.4055928420       -4.8789299366
 H       -10.7205428149        3.2124096414       -4.8877583887
 H       -10.7822114056        4.4366327154       -3.6990101950
 H       -13.7290912225        2.9127611328       -4.4474709460
 H       -14.0954497837        2.0222266654       -2.8620432967
 H       -13.0806439426        1.3593587570       -4.1305663042
 H        -7.9929459614       -3.4250387124       -1.0780999226
 H        -8.5788262338       -2.4696296962       -2.4093907583
 H        -9.6886235643       -2.7267373519       -1.0826193992
 H        -9.6576488283       -1.8478076237        1.0185959500
 H        -8.3919146205       -1.0255218023        1.7661552248
 H        -8.0695340887       -2.6073451962        1.3870443126
 H        -2.5619445355       -0.2691751809       -4.7987236130
 H        -2.3247864880       -0.6259118150       -3.1424906116
 H        -3.6821599384        0.3341970727       -3.6752411370
 H        -4.9229084593       -0.5229451244       -5.7459595097
 H        -5.8568000351       -1.9002882602       -5.3702448774
 H        -4.3477827424       -2.1354943298       -6.2264689738
 Na      -11.9448839392        6.4806900786        0.1894432437
