117

 C        -2.2988250553       -3.7442806330       -4.9618455707
 C        -3.4286189681       -3.4646266084       -3.9908028945
 O        -3.8376844700       -4.3262613986       -3.2103552039
 C        -3.9397963992       -1.9663665414       -3.9448126638
 C        -4.9004571707       -1.8679131036       -2.6726647103
 O        -6.0651374274       -1.4870199994       -2.8626531785
 C        -4.4044858323       -2.0194821003       -1.2555659718
 C        -5.5948451683       -2.1601861524       -0.3480748957
 C        -6.5219427570       -0.9117878306       -0.4401397549
 O        -6.0319419845        0.2168960103       -0.4603914738
 C        -8.1410145213       -1.0698800723       -0.3932202660
 C        -8.7864112164        0.3147762139       -0.7969967050
 O        -9.0726095802        1.0781865915        0.1141256810
 C        -8.9117272912        0.6320992593       -2.3186155832
 C        -9.6736040540        1.9111695943       -2.7073872203
 C       -11.1816070032        1.6833045903       -2.6779488166
 O       -11.5810305405        0.5645416957       -2.3782795184
 C       -12.2021298029        2.8732400193       -2.9249651025
 C       -12.3083377106        3.7034966697       -1.5800811648
 O       -11.7738131676        4.8200935400       -1.5127779475
 C       -13.0931168572        3.0215028339       -0.4264895723
 C       -12.1464510926        2.6402824703        0.7947733322
 C       -12.1169933843        3.7612532322        1.8185247592
 O       -12.8144719469        4.7347212603        1.7058471691
 C       -11.1851709132        3.7393021111        3.0290584009
 C       -10.3096636174        5.0776508019        2.8888374005
 O       -10.6940805144        5.9901170011        2.1890892431
 C        -9.0286448102        5.2001740144        3.7074562237
 C        -8.2808516727        6.5311271677        3.4234131072
 C        -9.1700201471        7.7668971203        3.7317158480
 O        -9.8504004706        7.7822840878        4.7712115752
 C        -9.3053693422        9.0151407807        2.8076453989
 C       -10.8029907207        8.9997234731        2.1605618062
 O       -10.8968266834        8.8707195155        0.9422777567
 C       -11.9986245454        9.1556224887        3.0397838867
 C       -13.3991278452        8.7257871259        2.4689080714
 C       -13.8609613985        9.7197228808        1.4453668307
 O       -13.1118568304       10.6531875774        1.1457374350
 C       -15.1934880807        9.2954136110        0.6488118685
 C       -14.6682344341        8.8404195798       -0.7839853441
 O       -13.9643514182        7.7920493526       -0.8390535681
 C       -15.0480338543        9.7288251636       -1.9331036646
 C       -15.9326196345        8.1141047919        1.2581854953
 C       -16.1167362925       10.5404903268        0.7187780905
 C        -8.9844348280       10.2168903010        3.7523446759
 C        -8.3117752819        9.0880844220        1.6318741379
 C       -11.9783877852        3.8443717227        4.3196076772
 C       -10.2255407008        2.5478077195        3.2657406779
 C       -11.8659147703        3.7653276534       -4.1178355581
 C       -13.6751246264        2.2496295759       -3.2150460110
 C        -8.5626420761       -2.2455514971       -1.3828241420
 C        -8.5010080907       -1.5552583189        1.0786439440
 C        -2.8368083481       -0.9650228754       -3.7264264975
 C        -4.6465376535       -1.6919992238       -5.3191967766
 H        -1.3773744104       -3.9548258720       -4.3798686374
 H        -2.0425109479       -2.9109462616       -5.6370884787
 H        -2.4087264378       -4.6059758354       -5.5351280512
 H        -3.7331906166       -1.1690591919       -1.0956377731
 H        -3.8104143600       -2.9118192132       -1.2599789500
 H        -5.2947119625       -2.3108575476        0.7384177510
 H        -6.1492210084       -3.1244007020       -0.6697237335
 H        -9.2862001604       -0.2425067708       -2.9434271935
 H        -7.8696109575        0.7767524233       -2.6306492025
 H        -9.3829564744        2.1971564641       -3.7519339053
 H        -9.3571579832        2.6595337465       -1.9797293360
 H       -13.5309076579        2.1290580394       -0.7923423432
 H       -13.9495925858        3.6427929878       -0.1524873318
 H       -11.1184691400        2.4587828734        0.5416641280
 H       -12.5295299167        1.7141163817        1.2811786619
 H        -8.2963322681        4.3875731591        3.4312184479
 H        -9.1901219479        4.9759422535        4.8086806681
 H        -7.9408581247        6.4592816721        2.3420511603
 H        -7.4278716259        6.5545949759        4.0081241892
 H       -12.0585049957       10.2676829249        3.2521387789
 H       -11.8272051931        8.7531045026        4.0765237170
 H       -14.1611748611        8.7648501533        3.3170775822
 H       -13.3490353536        7.7027414813        2.0918367873
 H       -14.6976970606       10.7052810540       -1.6926955668
 H       -16.1376989944        9.8292083946       -1.8712475790
 H       -14.5662070715        9.4353952686       -2.9087569728
 H       -16.2475761561        8.3640282620        2.2540841759
 H       -15.2824809025        7.2917596103        1.3024487013
 H       -16.8176965158        7.9832715385        0.5757491417
 H       -16.6387556734       10.6771398902        1.7319182067
 H       -16.8414614411       10.5022137463       -0.0161391415
 H       -15.5963322261       11.4518926179        0.4981695747
 H        -8.7227579328       11.0453636730        3.0183257743
 H        -8.0475301120        9.9799681363        4.3763444101
 H        -9.7313691957       10.5243829560        4.3928184081
 H        -8.2614253298        8.1698317820        1.0431829754
 H        -7.2484050942        9.1469069104        1.9859831661
 H        -8.5372231226        9.9274997841        1.0173805051
 H       -12.4682808150        2.9550033623        4.6512507683
 H       -12.6945428432        4.6123344993        4.1808011771
 H       -11.1473859079        4.0604389308        4.9901110381
 H        -9.4606495240        2.4593760487        2.5890296441
 H       -10.8333127041        1.6541442874        3.0919022783
 H        -9.8838924137        2.4878926316        4.3251167332
 H       -12.7930291420        4.0351473462       -4.5140443955
 H       -11.3114878579        3.2764903373       -4.9197097778
 H       -11.1636170323        4.5852127327       -3.8781790475
 H       -14.3741855344        2.7887946408       -2.6785339431
 H       -13.5888150554        1.2403071429       -2.7285832460
 H       -13.8743521787        2.3081629442       -4.2702126936
 H        -8.0693785862       -3.1758617556       -1.1375566401
 H        -8.2878263780       -1.9717291792       -2.3974251074
 H        -9.6630955874       -2.6050630429       -1.3079579749
 H        -9.5068658979       -1.9120577565        1.2265903427
 H        -8.3140439532       -0.7839764946        1.8515875132
 H        -7.9292410855       -2.4113927354        1.3822819281
 H        -2.2258069182       -0.9177455974       -4.6380771740
 H        -2.1829166840       -1.2444895971       -2.9104072866
 H        -3.1540509454        0.0253047946       -3.4544018501
 H        -5.3738847192       -0.8851421004       -5.3236204095
 H        -5.0631852149       -2.5960602426       -5.7631629684
 H        -3.9612270474       -1.1908428808       -5.9682890625
 Na      -12.4403716030        6.4095222392        0.2416348408
