117

 C        -6.0154939665       -4.6567895695        4.6409417102
 C        -6.2229342145       -5.2661785887        3.3062060399
 O        -5.7165902338       -6.3465222649        3.1411984449
 C        -7.1349852762       -4.5356768909        2.3009983781
 C        -8.6257621215       -4.4665320214        2.8978437815
 O        -8.8417168428       -5.3878066239        3.7024835922
 C        -9.6562428474       -3.3105150633        2.4850003851
 C       -10.9704683930       -3.2277225315        3.2327627830
 C       -11.5848469314       -1.7893139439        3.1154396356
 O       -12.1191948750       -1.4175723950        2.1061655296
 C       -11.5308313804       -0.7195114987        4.3449395604
 C       -10.5311203566        0.3068288520        3.6605152801
 O        -9.3485877746        0.0959733681        3.8918848592
 C       -10.9642882629        1.3792878222        2.6475431841
 C        -9.6797546243        1.9175239992        1.8985839221
 C        -9.9060622344        2.8334408546        0.6626651796
 O        -9.5895922770        4.0283108418        0.7116047017
 C       -10.3133702565        2.2879523337       -0.7095515322
 C       -11.8021951019        2.7156575335       -0.7926454416
 O       -12.4040683354        3.0764903774        0.2092441286
 C       -12.5749911309        2.5536128900       -2.1837326637
 C       -13.5041299911        3.7325146030       -2.3467582893
 C       -12.7358405284        5.0038595474       -2.0405857842
 O       -11.6323937529        4.8926626747       -1.4865349820
 C       -13.3377570050        6.4522601726       -2.3783807259
 C       -12.0980018037        7.1679635314       -2.9700497333
 O       -11.0550342954        7.2016050401       -2.3606141462
 C       -12.1594245620        7.8087108576       -4.4108756261
 C       -10.8746907994        8.7057041489       -4.6253849547
 C       -10.9044838408        9.9663294439       -3.6684874497
 O       -11.8698198981       10.1032010009       -2.9013872405
 C        -9.5460945224       10.8864100897       -3.8453757436
 C        -8.5738899364       10.2151168512       -2.7340337254
 O        -7.4240345760        9.9127704489       -2.9728703253
 C        -9.0986047645       10.3630304634       -1.2662266858
 C        -8.0639260288       10.0546830179       -0.1027068102
 C        -8.0039350606        8.4787853206        0.1154265866
 O        -9.0214467540        7.9350067036        0.3982365688
 C        -6.7085436397        7.6524441006        0.0684312440
 C        -6.6872750718        6.8983192425       -1.2990031117
 O        -7.6481384966        6.2686155333       -1.6967609275
 C        -5.4049052362        6.7605326957       -1.9903633817
 C        -5.5020346948        8.4978383708        0.2708945936
 C        -6.6073980962        6.4932217397        1.1116776402
 C        -8.8439153790       10.7733014693       -5.1746220731
 C        -9.8051088218       12.4046958514       -3.5039960641
 C       -14.6482048461        6.5149222532       -3.2999968164
 C       -13.5047895706        7.1207682226       -0.9601380271
 C        -9.5184760620        2.9033390337       -1.9390573983
 C       -10.3440913526        0.7383244153       -0.9009266308
 C       -12.9352849410       -0.0861605834        4.5137641463
 C       -10.9359342644       -1.2903709638        5.6261582577
 C        -6.4705372004       -3.0976425692        1.9710417056
 C        -7.0999124554       -5.3614145225        1.0832339028
 H        -5.7468072499       -3.6220141621        4.5012599897
 H        -5.2158609850       -5.1721645385        5.0424695545
 H        -6.9484078702       -4.7055987640        5.1575913867
 H        -9.7953390838       -3.1939356963        1.4065094913
 H        -9.0575707299       -2.3901084140        2.8222293342
 H       -10.6951241894       -3.4023122019        4.2363924529
 H       -11.6131069477       -3.9703426126        2.8439962546
 H       -11.5884810501        2.1318487381        3.1187681309
 H       -11.5942234122        0.8559187620        1.9454718057
 H        -9.1037304995        0.9654059003        1.5941849744
 H        -8.9698224902        2.4112707780        2.5363878502
 H       -12.9712566946        1.5615582713       -2.4031396176
 H       -11.8473885515        2.4444170666       -3.0205493929
 H       -14.3406612025        3.5560314389       -1.7151676968
 H       -13.7993430812        3.7153433560       -3.4618342918
 H       -12.8897139887        8.5031785463       -4.5391284530
 H       -12.2708734476        7.0468928006       -5.1762957926
 H       -10.7622526234        8.9007330421       -5.6870424319
 H       -10.0012270949        8.2062172509       -4.1818708993
 H       -10.0538587352        9.8246298890       -1.0236555969
 H        -9.3470565416       11.3703610329       -1.1820389769
 H        -8.4475205544       10.2924993807        0.8629929498
 H        -7.1663668427       10.5939622865       -0.3365901922
 H        -5.0679251973        7.6940057531       -2.3739256680
 H        -5.5262577729        6.0759648670       -2.9005563970
 H        -4.6674283901        6.3988943635       -1.2810254728
 H        -5.5145923009        9.0874465879        1.2320969294
 H        -5.3621119933        9.2120141970       -0.5511100443
 H        -4.6146837978        7.8902977355        0.2930747843
 H        -6.3724813861        6.9303633742        2.0934447068
 H        -5.9891951053        5.7003148307        0.7139559813
 H        -7.6578582018        6.1218326452        1.3447094829
 H        -9.2265230755       10.0250055734       -5.7664284918
 H        -7.7907185417       10.7362390314       -5.0107097429
 H        -8.8973137108       11.6824871557       -5.7842632312
 H        -8.8817074012       12.9975286894       -3.6157215367
 H       -10.2341072069       12.4973827664       -2.6070308783
 H       -10.4042470034       12.7045942743       -4.3568433084
 H       -15.6150825006        6.0678832046       -2.9960764550
 H       -14.2955767661        6.2510550890       -4.3261275854
 H       -14.8668599968        7.5526818117       -3.1963515572
 H       -14.5824614767        6.9200524910       -0.6463268531
 H       -13.5098571536        8.2563471773       -0.9041361661
 H       -12.7251767282        6.6608944183       -0.2392749426
 H        -9.7321550903        2.4422297950       -2.9794071371
 H        -8.5029971352        2.7068408498       -1.8521055543
 H        -9.6278127805        4.0010372447       -2.2176698777
 H       -10.9279695473        0.3154250234       -0.1302539762
 H        -9.3672493571        0.2920666268       -1.0019930245
 H       -10.9078728083        0.5529599533       -1.8050093716
 H       -13.5738817614       -0.5286881427        5.2473419025
 H       -13.4861492046       -0.2624628085        3.6139797912
 H       -12.9471991412        1.0038218540        4.7711128502
 H       -11.5450744184       -2.1197725069        5.8094409634
 H       -10.7914195993       -0.7134438921        6.5113884856
 H        -9.9488299931       -1.6012478817        5.4707893230
 H        -6.5949617082       -2.3526686674        2.7837925131
 H        -7.0231114949       -2.8375404228        1.0019327528
 H        -5.3734395294       -3.2676084333        1.8493191089
 H        -8.0634808657       -5.8086977476        0.8266371003
 H        -6.3968563213       -6.1840670699        1.2243052831
 H        -6.7586738814       -4.7640279205        0.2503996537
 Na       -9.6843595847        6.0207970812       -0.6900058346
