117

 C        -2.3910275083       -4.0368755665       -4.7842203352
 C        -3.5126022702       -3.5167071304       -3.8741460295
 O        -4.1364319707       -4.2838590369       -3.1987563601
 C        -3.9121344486       -1.9818688074       -3.8584458958
 C        -4.9883288392       -1.8424412986       -2.8056170800
 O        -6.1350823442       -1.5356481264       -3.0567676570
 C        -4.4971579283       -2.1717175623       -1.3269569072
 C        -5.5735319329       -2.1123665809       -0.2497202250
 C        -6.4470667991       -0.8555468324       -0.3962346257
 O        -5.9352353185        0.2580526505       -0.3658152921
 C        -8.0260338747       -0.9758989382       -0.4390536121
 C        -8.6988395178        0.3898733828       -0.8705920922
 O        -9.1347564286        1.1059367114        0.0193918156
 C        -8.8094930742        0.7828460778       -2.3800385572
 C        -9.7214278593        2.0708155496       -2.5403553814
 C       -11.2269771036        1.7733152202       -2.6190297742
 O       -11.6870376251        0.6925595771       -2.3920451743
 C       -12.3017624594        2.8833160055       -2.8747717422
 C       -12.3419067285        3.5247057614       -1.4336278650
 O       -11.8580568661        4.6122091413       -1.1879277911
 C       -12.9940093754        2.5801792082       -0.3550371295
 C       -12.1905131958        2.4162705691        0.9135740534
 C       -12.1535390239        3.7115525007        1.7940862014
 O       -12.9801571146        4.6010711795        1.5295970984
 C       -11.2063407802        3.8603138497        2.9971792711
 C       -10.3001593919        5.1247243052        2.8718660091
 O       -10.8161730233        6.1329854782        2.4090842672
 C        -8.9154751958        5.2088700898        3.5659855682
 C        -8.2305548784        6.5700291161        3.3504066639
 C        -9.2119280013        7.7079157118        3.6777490915
 O        -9.9486072809        7.6445320484        4.6116056468
 C        -9.2478747976        8.9557948756        2.6326390330
 C       -10.6655412177        8.8419993390        2.0883968630
 O       -10.9250309669        8.3049663174        1.0309453330
 C       -11.7835976840        9.2850692451        3.0150884618
 C       -13.2224038306        8.9661135720        2.5880922159
 C       -13.7773298056        9.7396124380        1.3471970316
 O       -13.1215023685       10.5738898350        0.8130124095
 C       -15.1109051974        9.3467027320        0.6938205761
 C       -14.7005474153        8.8248428110       -0.7730209641
 O       -14.1249273700        7.7816822007       -0.7797092800
 C       -15.0172913331        9.5875017783       -2.1299939480
 C       -15.9420350835        8.2128435218        1.4349251656
 C       -15.9952091641       10.6385297285        0.5899990525
 C        -9.1587716241       10.2653647399        3.5029043584
 C        -8.1947025420        8.8334700756        1.6023608233
 C       -12.0845141743        4.1794362391        4.3010911144
 C       -10.3907641178        2.5970770654        3.1783881457
 C       -11.9342978510        3.9646895751       -3.9811672397
 C       -13.6763181606        2.2765873465       -3.3284765490
 C        -8.5788115725       -2.1604398783       -1.2462222768
 C        -8.2948319337       -1.1550212943        1.0486298381
 C        -2.6279519561       -1.1231656592       -3.6120512831
 C        -4.5591638958       -1.7063469474       -5.1757919152
 H        -1.3994802260       -4.1409958743       -4.3162266042
 H        -2.2756188201       -3.3913129270       -5.6715218711
 H        -2.5518847822       -5.1389989667       -5.1244053378
 H        -3.7713575777       -1.3729940807       -1.1430452430
 H        -3.8940370208       -3.0925818285       -1.3851504015
 H        -5.1579192771       -2.0230863509        0.7227952450
 H        -6.1475490187       -2.9864405801       -0.2203526031
 H        -9.1619745818       -0.0773907511       -2.8954616168
 H        -7.8255353796        1.0101158996       -2.8221318580
 H        -9.3921681860        2.6545478598       -3.3713297035
 H        -9.5727122950        2.6082674425       -1.5956330049
 H       -13.1524925354        1.5511995008       -0.8013532315
 H       -14.0071430294        2.9000130062       -0.0764060182
 H       -11.1148545694        2.0900984301        0.7774321793
 H       -12.7021886062        1.6186289789        1.4677175008
 H        -8.2767165781        4.3758963266        3.3396366214
 H        -9.0725984888        5.1562856169        4.6106775411
 H        -7.9237304205        6.6158817656        2.3426185254
 H        -7.2995301083        6.7319954960        4.0109592269
 H       -11.6680078974       10.3044918683        3.2787253713
 H       -11.6179479098        8.7856584736        3.9458767516
 H       -13.9240079890        9.0753359066        3.3702396837
 H       -13.1287945319        7.8837884823        2.4138692610
 H       -14.6783134196       10.6711002985       -2.1294877331
 H       -16.1012183200        9.6585307856       -2.2843876440
 H       -14.4474657619        9.0394164544       -2.8285470036
 H       -15.8269534953        8.3980379575        2.5137626891
 H       -15.3677082958        7.2663859592        1.2044552223
 H       -16.9413768457        8.2386164027        1.1161702055
 H       -16.5458364983       10.6588326709        1.4774874805
 H       -16.5443836277       10.7479429730       -0.4271198584
 H       -15.4395171276       11.5673272636        0.6454693602
 H        -9.5756690142       11.1367442263        3.0325258385
 H        -8.1296591129       10.4416212494        3.6993079316
 H        -9.7214214712       10.0887721472        4.4551544796
 H        -8.4353146754        8.0580323362        0.9098586201
 H        -7.2222523101        8.6015958511        1.9811040543
 H        -8.1670550382        9.7921224354        1.0689346549
 H       -12.6149337001        3.2205408909        4.4245088002
 H       -12.8622060629        4.9322573593        3.9973387276
 H       -11.4546190977        4.3335695578        5.1850648770
 H        -9.9562013056        2.1523106796        2.2181669851
 H       -10.8282678505        1.8064781841        3.8116147724
 H        -9.5820582275        2.9500532889        3.7782725683
 H       -12.7284628556        4.7485667070       -4.1043723402
 H       -11.7307144792        3.5530492477       -4.9676542010
 H       -10.9872422971        4.3649080748       -3.6861239154
 H       -14.4009234796        3.1163172678       -3.0922615238
 H       -13.9334802721        1.3984036024       -2.8223322150
 H       -13.5006073214        2.1763926396       -4.3935437540
 H        -8.1652739238       -3.0901575638       -0.8488649805
 H        -8.4877063750       -2.0878636028       -2.3225297868
 H        -9.5407141059       -2.3395368270       -0.9905506476
 H        -9.3298194361       -1.3333662516        1.3124045494
 H        -7.9516826536       -0.3221113455        1.6203979423
 H        -7.9110679663       -2.1023469753        1.4384108101
 H        -2.1270206428       -1.0558755503       -4.5494217790
 H        -1.9466098589       -1.5519871631       -2.8767084386
 H        -2.8359393433       -0.1160353006       -3.2612835064
 H        -4.8933448206       -0.6609608783       -5.2726169529
 H        -5.3372807577       -2.4583066377       -5.3523824757
 H        -3.8507803396       -1.7163215812       -6.0143662600
 Na      -12.2240831424        6.6767284435        0.2666344898
