117

 C        -2.4422780450       -4.1256358266       -4.7215161396
 C        -3.5927161770       -3.6384947832       -3.8968214550
 O        -4.2406712391       -4.4008572256       -3.1930518521
 C        -3.9157932544       -2.1205380518       -3.9186819863
 C        -4.9270152456       -1.8934828266       -2.7545096180
 O        -6.0787256068       -1.5208374094       -2.9978217391
 C        -4.5252443083       -2.0882932726       -1.2501304925
 C        -5.6340547720       -2.0268508560       -0.3107934352
 C        -6.4435410956       -0.7408458199       -0.4774540452
 O        -5.8526863333        0.3576927461       -0.3997454721
 C        -8.0313474134       -0.8639924381       -0.3981615662
 C        -8.7377323225        0.4379732425       -0.8850098216
 O        -9.2099282750        1.1713574637       -0.0446891013
 C        -8.8896190690        0.8878185192       -2.3231090225
 C        -9.7834102825        2.0894861107       -2.4877123683
 C       -11.2512903268        1.6824633994       -2.5989163672
 O       -11.6368631542        0.5404062906       -2.4057124540
 C       -12.3109871059        2.9166629281       -2.7597730549
 C       -12.4493393345        3.4680936455       -1.3356287607
 O       -11.9431691940        4.5781259157       -1.0345389539
 C       -13.0064701132        2.4499459901       -0.3249705806
 C       -12.1325687259        2.4751450185        0.9672533935
 C       -12.2471079166        3.7853245887        1.7487556175
 O       -13.0436946304        4.6497985789        1.4674114131
 C       -11.1921258653        3.8091554621        2.9467253572
 C       -10.3419978089        5.1308106292        2.8821803190
 O       -10.8449944055        6.1313530842        2.4001486154
 C        -8.9824255462        5.1388809258        3.5122728371
 C        -8.2525122671        6.4766524905        3.3194355979
 C        -9.1693710949        7.7053145894        3.5834375492
 O        -9.9192408355        7.6831779654        4.5554634367
 C        -9.2524935420        8.9000298647        2.6243497434
 C       -10.7364822128        8.7514910123        2.0879137254
 O       -10.8446950574        8.1427539184        1.0253293461
 C       -11.8498998299        9.3769648408        2.9258208570
 C       -13.2699313111        9.0131603572        2.5291494319
 C       -13.6815190304        9.7716908294        1.2327423757
 O       -13.0000973097       10.6759446002        0.7302385147
 C       -15.0943087765        9.3345966104        0.6444170217
 C       -14.6921994422        8.6587337447       -0.7400361831
 O       -14.0178495159        7.6291933485       -0.8550923375
 C       -15.0114311177        9.4976554559       -1.9120003499
 C       -15.9149007451        8.3314581046        1.4638492625
 C       -15.9390129211       10.6587706176        0.5412102250
 C        -9.1656225276       10.2726720348        3.4346775857
 C        -8.1974176019        8.8477169788        1.4945500381
 C       -12.1094225567        4.2367233840        4.1441247507
 C       -10.3791350537        2.5411996856        3.2593026889
 C       -11.7920125674        4.0871532539       -3.6804517996
 C       -13.5608045996        2.3114386473       -3.3821602987
 C        -8.5685796406       -2.0775399747       -1.2039398755
 C        -8.3359665689       -0.9963916026        1.1332328542
 C        -2.6329036305       -1.2500621293       -3.5820939950
 C        -4.4735677687       -1.6007988454       -5.2882012886
 H        -1.5647742181       -3.9965735963       -4.0938179609
 H        -2.2544693672       -3.5556298872       -5.6665033271
 H        -2.3611464113       -5.1794553008       -4.8517347493
 H        -3.6606938757       -1.3900726208       -0.9879103298
 H        -4.1071227803       -3.0802080952       -1.2673353330
 H        -5.3218269014       -2.1248741734        0.7198509525
 H        -6.2701955535       -2.8906403304       -0.5080975262
 H        -9.1809550662        0.0241090947       -2.9359643906
 H        -7.8812076252        1.1880891100       -2.7255927298
 H        -9.3936559541        2.6026064692       -3.4314642367
 H        -9.7227175950        2.7146941713       -1.6123284889
 H       -13.0172510128        1.4285256280       -0.8170014597
 H       -14.0652293265        2.6493884752       -0.1079193768
 H       -11.0697188695        2.3141932667        0.7928803254
 H       -12.4052496772        1.7049460430        1.6943414103
 H        -8.4423513906        4.2743878026        3.0853898731
 H        -9.0109118465        4.9689083693        4.5483815193
 H        -7.8947857987        6.5027484116        2.2564348437
 H        -7.3958275231        6.6124925915        3.9734473528
 H       -11.8074255361       10.4523623025        2.7548015363
 H       -11.6010933228        9.2707694084        3.9644178990
 H       -14.0317739922        9.3695983352        3.2366962622
 H       -13.3603135349        7.9322812810        2.4780546462
 H       -14.7382865622       10.4995438488       -1.7307116282
 H       -16.0978718892        9.5541309663       -1.9408947041
 H       -14.5154891290        9.0821609036       -2.7771502571
 H       -15.9368161284        8.6802011542        2.4882963531
 H       -15.4069151212        7.3597647872        1.4010017525
 H       -16.9057358942        8.3439065592        1.0396345662
 H       -16.1698096758       10.9515777155        1.6277086497
 H       -16.6873749402       10.7117270672       -0.2409694898
 H       -15.2812162517       11.4684163506        0.2651941630
 H        -9.7419777417       11.0635166227        2.9601406770
 H        -8.1009776691       10.5795438590        3.3788775399
 H        -9.5193955889       10.2084613595        4.3569321399
 H        -8.4749550929        8.1449545085        0.7491954482
 H        -7.1733284251        8.5245904480        1.8595450044
 H        -8.1183586692        9.8155716182        1.0356453761
 H       -12.7957959280        3.4587718897        4.3456276635
 H       -12.6452453799        5.1251047808        3.7855035885
 H       -11.4305293348        4.3548478062        5.0341234789
 H        -9.6979104738        2.3027724942        2.4833566271
 H       -11.0330285027        1.6501858006        3.5100717892
 H        -9.8266229666        2.7199722994        4.1969141086
 H       -12.3810559253        5.0060917497       -3.5645293943
 H       -11.7968760418        3.8354115818       -4.7440422874
 H       -10.7235488906        4.2952483078       -3.4091374663
 H       -14.3201341477        3.0773066491       -3.4673177686
 H       -13.9131318411        1.4628252752       -2.7475393117
 H       -13.1531140402        1.9386346144       -4.3033385451
 H        -8.4080755649       -2.9945822414       -0.6596110236
 H        -8.2033391661       -2.1038775875       -2.1928229398
 H        -9.6606336689       -2.0876736187       -1.2673741687
 H        -9.3887025184       -1.0536946779        1.3029793300
 H        -7.9630734207       -0.2107068683        1.8104994211
 H        -8.1300466368       -1.9950280098        1.4860726708
 H        -1.8816332452       -1.2025794478       -4.3776149838
 H        -2.1573238888       -1.5097820110       -2.6121994166
 H        -3.0148098428       -0.2451281899       -3.4439526348
 H        -4.4320834657       -0.4824295273       -5.4044221637
 H        -5.4716676407       -2.0272943021       -5.4233103750
 H        -3.9238893704       -1.9448620071       -6.1243171544
 Na      -12.1887995473        6.6580808883        0.3121488315
