117

 C        -2.4116008963       -4.2312734623       -4.6992227926
 C        -3.6200111364       -3.7462291620       -3.8852248682
 O        -4.3397588395       -4.4924727704       -3.2606641421
 C        -3.9621137734       -2.1438095466       -3.8768860943
 C        -4.9323876539       -1.8546127278       -2.7294858113
 O        -6.0549133759       -1.4652997955       -2.9135085584
 C        -4.4695122428       -2.0612078442       -1.2928419261
 C        -5.6946661832       -2.0090510972       -0.3923182084
 C        -6.4800148879       -0.5986755700       -0.4437607543
 O        -5.9104390350        0.4315676146       -0.5268670633
 C        -8.0767722808       -0.7363571351       -0.3216787752
 C        -8.7971225421        0.6022792690       -0.7759580125
 O        -9.3559538209        1.3407557691        0.0277319090
 C        -8.8009526519        0.8808028018       -2.3321487832
 C        -9.7182635638        2.0693225743       -2.5571505393
 C       -11.2114559587        1.6938711837       -2.5356797584
 O       -11.6254223353        0.5529495344       -2.4951388233
 C       -12.2111274094        2.8952784378       -2.7411007784
 C       -12.4956806548        3.3670938155       -1.2784737650
 O       -12.1353534217        4.4776490289       -0.9195524772
 C       -13.0816473018        2.4384661469       -0.2437839605
 C       -12.1089769483        2.3987466421        0.9438688297
 C       -12.1830811121        3.7379127201        1.7168034868
 O       -12.9741528803        4.6308489152        1.5389934927
 C       -11.2946287411        3.8505497997        3.0284270126
 C       -10.3565388233        5.0832793337        2.7813545231
 O       -10.8061470554        6.1225337286        2.3578922638
 C        -8.9846117131        5.0774801120        3.4440934449
 C        -8.2874804582        6.4148968304        3.2656290128
 C        -9.1845901390        7.6479541245        3.5964627222
 O        -9.8228242857        7.7071407231        4.6366223772
 C        -9.2475814740        8.9254767160        2.5789828474
 C       -10.6905533193        8.8256961412        1.9826227312
 O       -10.8303106570        8.2411317593        0.9346097105
 C       -11.7765831585        9.4588690195        2.7846704433
 C       -13.1913116817        9.0751663925        2.4307633778
 C       -13.6622407786        9.7324726150        1.2182890102
 O       -13.0110903759       10.6262290294        0.7058429996
 C       -14.9949581318        9.3346161787        0.6113983498
 C       -14.6421039886        8.6637042653       -0.7591394479
 O       -14.0086917196        7.5860038023       -0.7598766740
 C       -15.0441840699        9.4157357081       -1.9919848915
 C       -15.8219353497        8.3832743879        1.5206798463
 C       -15.8184825257       10.6138356351        0.4317813592
 C        -9.0111784951       10.2249879372        3.3698135092
 C        -8.2595481415        8.9635126710        1.3825088020
 C       -12.2809384786        4.2204224557        4.2351484771
 C       -10.5234631235        2.6069496301        3.3258138347
 C       -11.5891962075        4.1133487258       -3.4019729102
 C       -13.5648136992        2.3577035038       -3.4313945181
 C        -8.5657634545       -1.9094053617       -1.1408288212
 C        -8.3765981867       -0.9018067317        1.1349796595
 C        -2.6084871371       -1.4425695837       -3.5708509553
 C        -4.3903977162       -1.6016046766       -5.2642144306
 H        -1.4862338102       -4.0163762972       -4.1786670332
 H        -2.3597950040       -3.8163562748       -5.6789555334
 H        -2.3057453572       -5.2579379178       -4.6570954777
 H        -3.8319312738       -1.1994884877       -1.0231022344
 H        -3.8356843769       -2.9524436687       -1.2299754302
 H        -5.3294266439       -2.2183949806        0.6585345930
 H        -6.4076072362       -2.8787105097       -0.6230490002
 H        -9.1570409783       -0.0742426536       -2.8669856728
 H        -7.7675851574        1.0432530453       -2.6973265560
 H        -9.4921436075        2.4660037391       -3.5849551037
 H        -9.5652318242        2.8339730068       -1.7570364121
 H       -13.2208688839        1.4747113469       -0.6731407461
 H       -14.0959388632        2.8381654852       -0.0278363876
 H       -11.1072042915        2.1927855864        0.6508410469
 H       -12.3453498632        1.6584708894        1.7048978980
 H        -8.3587885422        4.2309161125        3.1150793714
 H        -9.0826035485        4.9656827809        4.5696634130
 H        -7.9348757055        6.4576540934        2.1940954723
 H        -7.4603263158        6.5381359748        3.8936944619
 H       -11.8023141947       10.5748994701        2.7116237984
 H       -11.5325462708        9.2717396988        3.8619597277
 H       -13.9288312056        9.4028316702        3.2320234834
 H       -13.3268406137        7.9992996483        2.3051524675
 H       -14.6714974192       10.3864003392       -1.8893186906
 H       -16.0918160040        9.5626269847       -1.9027378821
 H       -14.7005717399        8.9155322806       -2.9190224262
 H       -16.0464774683        8.9720694555        2.3904281859
 H       -15.3039624776        7.5084492792        1.7222156616
 H       -16.7814760058        8.1995616993        0.9635555962
 H       -15.7341811547       11.2419015411        1.3480307047
 H       -16.7478399961       10.3772068159        0.0657903173
 H       -15.4381150323       11.2717726390       -0.3804430513
 H        -9.4808451805       11.0567511534        2.8776313782
 H        -7.9590276823       10.4172537775        3.3822712383
 H        -9.5407010107       10.2291889019        4.3642225981
 H        -8.4866140612        8.0986333392        0.6979542393
 H        -7.2371671161        8.7930634093        1.7520147358
 H        -8.3002749564        9.8811044062        0.8102448227
 H       -12.9876092943        3.4133280844        4.4285736564
 H       -12.7228375443        5.1511523062        4.0530456336
 H       -11.5656013941        4.2284038185        5.0238655514
 H        -9.6586862103        2.6022039907        2.7050081332
 H       -11.1424391446        1.8336988437        2.9868553558
 H       -10.2582436720        2.2901398226        4.3512473215
 H       -12.2725110884        4.9326486020       -3.2185595687
 H       -11.6120622317        3.9615393813       -4.4952914023
 H       -10.5804787777        4.4891159193       -3.0720183601
 H       -14.2290655510        3.1338679018       -3.6222210190
 H       -13.9185563587        1.7274488930       -2.5689472929
 H       -13.2755347779        1.6582483640       -4.2259185952
 H        -8.6635891421       -2.7832777667       -0.5437132165
 H        -7.9492375787       -2.0439582198       -2.0180382786
 H        -9.6301129761       -1.7586970818       -1.5776078900
 H        -9.4508457266       -0.9012920651        1.3492261914
 H        -7.9675732114       -0.1060855382        1.7731190989
 H        -8.1635863319       -1.8853528133        1.4901266101
 H        -1.7811183674       -1.6742083605       -4.2888499602
 H        -2.2980130410       -1.7020670697       -2.5582803697
 H        -2.7517499805       -0.3396852676       -3.5876563301
 H        -4.1328963706       -0.5713084368       -5.4149020868
 H        -5.4479089315       -1.7688895127       -5.3572814703
 H        -3.9915441305       -2.2029554428       -6.1109889079
 Na      -12.2921635551        6.4625150544        0.3452170561
