117

 C        -2.5245072264       -4.4176428911       -4.6474298761
 C        -3.7195136208       -3.8653212707       -3.8668242914
 O        -4.5977312939       -4.5535755661       -3.3898013773
 C        -3.8296474290       -2.2620072595       -3.7433377802
 C        -4.8491955030       -1.7735903874       -2.7215764099
 O        -5.9295739347       -1.3571936352       -3.1495487387
 C        -4.5921355676       -1.7953724906       -1.2233824889
 C        -5.7858821469       -1.8017893497       -0.2162828814
 C        -6.5836894464       -0.5300239298       -0.4123614909
 O        -6.0487892852        0.5440837411       -0.7783632114
 C        -8.1548536549       -0.5487638177       -0.1887661750
 C        -8.8212078126        0.7390569632       -0.7009317411
 O        -9.3450840402        1.5189839996        0.0776106515
 C        -8.6351210635        0.9990968863       -2.2461763730
 C        -9.5629842250        2.0383306786       -2.8457705548
 C       -11.0409267596        1.7018051783       -2.5981949121
 O       -11.4440365179        0.5548624189       -2.5836437603
 C       -12.1337787682        2.9539912079       -2.6877987449
 C       -12.5024332061        3.4147680665       -1.2254065050
 O       -12.4169844901        4.6055433540       -0.9196783272
 C       -13.1568706595        2.3910346301       -0.1963059327
 C       -12.3647657947        2.2151988786        1.1277941603
 C       -12.3522165239        3.5747669225        2.0096218489
 O       -13.2275309151        4.3935186363        1.7090584798
 C       -11.3846684303        3.7817004403        3.2252630485
 C       -10.4262089507        5.0315572389        2.9019803731
 O       -10.8509011865        5.8986859584        2.1625635918
 C        -9.0339691977        5.1203427311        3.5075285118
 C        -8.2549050119        6.4058931467        3.0312977417
 C        -9.0251191882        7.7128345751        3.3881536875
 O        -9.5433250768        7.8305342301        4.4812755693
 C        -9.0954731337        8.9182747333        2.4402561627
 C       -10.5781125432        8.9891358185        1.9497079034
 O       -10.8787693698        8.6116300904        0.8129395416
 C       -11.6849304245        9.5499597668        2.8451697608
 C       -13.0928775136        9.1055683076        2.3672928711
 C       -13.5940449094        9.7959817604        1.1008617583
 O       -12.8977170726       10.6942846903        0.6386994993
 C       -15.0167809883        9.4159446564        0.5141968435
 C       -14.6686568499        8.5422403993       -0.7854792419
 O       -14.0113086023        7.5259973631       -0.7153468092
 C       -15.0160312532        8.9739030824       -2.2415141390
 C       -15.7248623280        8.3973068303        1.4391717387
 C       -15.8389127899       10.6443211643        0.2913293254
 C        -8.7573933974       10.1368044969        3.3518722151
 C        -8.0490610379        8.7901144002        1.2533409066
 C       -12.3834091871        4.1313608283        4.4008454739
 C       -10.5624827907        2.5102644202        3.6484137708
 C       -11.4838152935        4.1724836278       -3.4442790575
 C       -13.4150693850        2.5268580934       -3.4444488652
 C        -8.8426173297       -1.7468100411       -0.9683213503
 C        -8.4102041915       -0.8015027232        1.3491405172
 C        -2.4306060551       -1.6649707835       -3.4775877175
 C        -4.3622982759       -1.8351392967       -5.2109553830
 H        -1.5363148296       -4.2990179494       -4.2409098298
 H        -2.6010386202       -3.9643448074       -5.6622997912
 H        -2.5012101124       -5.5176356604       -4.6546306670
 H        -3.9103419683       -0.9764749070       -0.9955133563
 H        -4.0030293384       -2.6922855976       -1.0706885317
 H        -5.2775831818       -1.8861528779        0.7462411355
 H        -6.3716474437       -2.6981908926       -0.2966749222
 H        -8.7234553447        0.1056902209       -2.8170388178
 H        -7.5584793464        1.2504984766       -2.2641137890
 H        -9.4847258893        2.0078747343       -3.9193424338
 H        -9.3806824364        3.0293626599       -2.4725062359
 H       -13.4192186956        1.3992621812       -0.6520825592
 H       -14.0647687533        2.9132609854        0.0451206308
 H       -11.3630480589        1.7318565563        0.9242873223
 H       -12.8853538309        1.5273447499        1.8119298069
 H        -8.3944709213        4.2428856805        3.2938603373
 H        -9.1311861065        5.1897533403        4.5693581076
 H        -8.1051458029        6.3062261213        1.9768487739
 H        -7.2373224567        6.4398862753        3.5370063379
 H       -11.6988132154       10.6456340541        2.9107779543
 H       -11.5780268533        9.2171107237        3.8808459501
 H       -13.8012534380        9.3293266511        3.1508912650
 H       -13.1689106828        7.9992601938        2.2255522555
 H       -14.1429517799        9.6069402776       -2.5524819631
 H       -15.9106074650        9.6464794047       -2.3378140189
 H       -15.1057627512        8.0578032700       -2.8243744186
 H       -16.0729439958        8.9000819729        2.3381134401
 H       -15.0695614936        7.4843779743        1.5487238568
 H       -16.5540646708        8.1090469618        0.8668871327
 H       -15.7883387517       11.2974734095        1.1780257163
 H       -16.8792090069       10.3483880321        0.0166480204
 H       -15.4890190537       11.1991903564       -0.5253010595
 H        -8.6852353679       11.1284967316        2.8207106516
 H        -7.7701950947        9.9274307369        3.8548256335
 H        -9.5365318959       10.2546314162        3.9966627709
 H        -8.1271041977        7.9139137789        0.6594628511
 H        -7.0221025332        8.9243018022        1.6560642702
 H        -8.2190402321        9.6386636632        0.5711019546
 H       -12.9375368383        3.2337779698        4.4571289471
 H       -12.9653589007        5.0082955233        4.0373529098
 H       -11.8837806790        4.3831191795        5.3645153489
 H        -9.8648716628        2.1508030661        2.8917363913
 H       -11.1485805749        1.6807541795        4.1494143129
 H        -9.8997526165        2.8839643304        4.4004594850
 H       -12.1614604608        4.9768717509       -3.7677503607
 H       -10.8800221913        3.8864859835       -4.2936038662
 H       -10.9736688583        4.7193957864       -2.6794601603
 H       -13.8086657794        3.5484857215       -3.6175404430
 H       -14.0790134262        1.8408653099       -2.9699559179
 H       -13.0439540172        2.0542445274       -4.3285862299
 H        -8.6197127017       -2.7439009824       -0.4558592213
 H        -8.5023290640       -1.8012631736       -2.0275898990
 H        -9.8883280341       -1.6061047960       -1.0661286079
 H        -9.4208240776       -1.0053002086        1.6720814150
 H        -8.1099232544        0.0340395303        1.9693907861
 H        -7.8406162235       -1.6925562201        1.6764135706
 H        -1.8119459211       -1.7128693227       -4.3475104876
 H        -1.9498743113       -2.2765084548       -2.6939576553
 H        -2.4803135905       -0.6309755202       -3.1723890278
 H        -4.2553361139       -0.7156169283       -5.2942973427
 H        -5.4404444740       -2.0512881777       -5.3058380796
 H        -3.9368508515       -2.4000927531       -6.0150500976
 Na      -12.5255539098        6.3277440015        0.4886087026
