117

 C        -2.6666692472       -4.5344406395       -4.5876433033
 C        -3.8070712060       -3.8907176186       -3.8368037982
 O        -4.7115851685       -4.5608197651       -3.3834208488
 C        -3.7744825955       -2.3267894471       -3.7471149714
 C        -4.9255036555       -1.8444451956       -2.7331430041
 O        -5.9351346133       -1.3042599243       -3.1224872766
 C        -4.5308162863       -1.7814212032       -1.1779806032
 C        -5.7652864917       -1.7124622340       -0.2934615102
 C        -6.6584542242       -0.4829965277       -0.5319482368
 O        -6.1910127314        0.5993416030       -0.8019763862
 C        -8.1862250251       -0.5638191691       -0.1532087514
 C        -8.7763398914        0.8137100781       -0.6806004487
 O        -9.3593635457        1.6124769527        0.0215649544
 C        -8.5685627862        1.1138005332       -2.1808191146
 C        -9.5465017880        2.0672763481       -2.8146529352
 C       -11.0413650292        1.7553582993       -2.7016595915
 O       -11.4046589063        0.6064774559       -2.5184624191
 C       -12.0199876082        3.0071463764       -2.6756924948
 C       -12.4700865095        3.4519117024       -1.2178537977
 O       -12.4407274852        4.6596655188       -0.9877121881
 C       -13.0349178906        2.3960037077       -0.2558899475
 C       -12.4338296716        2.2383006102        1.1610744535
 C       -12.4730555053        3.4439652572        2.0685738139
 O       -13.3076647826        4.2677233702        1.9542731641
 C       -11.4619077991        3.7285693035        3.2461518933
 C       -10.5127169381        4.9401401338        2.8580070837
 O       -10.8917758782        5.8022858946        2.0998834210
 C        -9.1645426133        5.1271365191        3.5502396601
 C        -8.3480943286        6.3026192749        2.9228139805
 C        -8.9685825020        7.6704555217        3.3032914507
 O        -9.4759362832        7.7770196585        4.4112148080
 C        -9.0185705850        8.9635347481        2.4123972187
 C       -10.5648824265        9.0455370013        1.8779315029
 O       -10.8138215850        8.5942150210        0.7748923134
 C       -11.7081441530        9.5234252341        2.8653970301
 C       -13.1227672896        9.1514877732        2.3904283000
 C       -13.5121930034        9.8608043951        1.0803445530
 O       -12.9196550065       10.7913254435        0.5499257148
 C       -14.9159996697        9.3287488028        0.3954909910
 C       -14.5446688526        8.5034437401       -0.8487824234
 O       -14.0020349104        7.4040057722       -0.6392006899
 C       -15.0586633539        8.9171881975       -2.1944164044
 C       -15.7468125010        8.4018801785        1.3510024230
 C       -15.7966902198       10.5774114000        0.1787673691
 C        -8.5988701617       10.1907068091        3.2030906906
 C        -8.0066526600        8.7739670764        1.2199206863
 C       -12.3007693183        4.1753886720        4.4802826681
 C       -10.6267766692        2.5318528851        3.7211210742
 C       -11.4523107622        4.1722170445       -3.4266118764
 C       -13.3355154162        2.4962225944       -3.4430037931
 C        -8.8863515552       -1.8068746462       -0.7852841777
 C        -8.3923513532       -0.6950535501        1.3235917582
 C        -2.4256736788       -1.7041737219       -3.4541889615
 C        -4.2197972370       -1.8837027582       -5.1859209216
 H        -1.7176586941       -4.4724712875       -3.9909067945
 H        -2.5065192402       -4.0170488211       -5.5912794915
 H        -2.6813956629       -5.5934182501       -4.6420371084
 H        -3.8482805164       -0.8849368621       -1.1287350657
 H        -3.9388051991       -2.6179024456       -0.8775758764
 H        -5.3972664163       -1.7148279630        0.6802943242
 H        -6.2486101018       -2.6710591458       -0.3976030062
 H        -8.5499416970        0.1740118881       -2.7801702326
 H        -7.5412511965        1.4894628459       -2.2492821178
 H        -9.3317102933        2.1416215391       -3.9220887662
 H        -9.3987313471        3.0067934740       -2.3958740166
 H       -12.9218842897        1.3903971784       -0.7466100325
 H       -14.1359773702        2.6466645521       -0.1688063007
 H       -11.3908709918        1.9050501330        1.0778890455
 H       -12.9677430166        1.3887078299        1.6618047917
 H        -8.4684456607        4.3104634029        3.5901967100
 H        -9.3925886807        5.4046863758        4.5291026935
 H        -8.3310420589        6.1041042695        1.7938283990
 H        -7.3337711936        6.2207802114        3.2897457182
 H       -11.6327801113       10.5998367812        2.9262843032
 H       -11.6117362732        9.1684913653        3.8588160954
 H       -13.8641648796        9.4189127639        3.1471379954
 H       -13.2489543879        8.0955501272        2.2799735808
 H       -14.2987806173        9.4295155189       -2.7494383488
 H       -15.8497752721        9.6705392606       -2.0100503342
 H       -15.5200682363        8.0113948617       -2.7200277535
 H       -15.8288498083        9.0069815694        2.2499531392
 H       -15.3799163723        7.3884857301        1.4425240289
 H       -16.7624175839        8.4011779473        0.9007420997
 H       -16.0065217928       11.0520179444        1.2320660039
 H       -16.7251166164       10.3436267067       -0.2889344413
 H       -15.2560090244       11.3634250449       -0.4046929441
 H        -8.5448542036       11.0584655302        2.5704843023
 H        -7.5974426843       10.0102812492        3.6280593653
 H        -9.3216581647       10.4344371783        3.9710172056
 H        -8.3563163144        8.0311431215        0.5405325224
 H        -6.9606759635        8.6080653497        1.5621234271
 H        -8.0042044365        9.6745236038        0.6682952597
 H       -12.8071510850        3.2515729089        4.7555727971
 H       -12.9159206789        5.0204068488        4.1405612103
 H       -11.6298532919        4.5686404022        5.3135776074
 H       -10.1400780671        2.0056666992        2.9437958907
 H       -11.1554753297        1.8351409591        4.4259229544
 H        -9.7296221417        2.9416885984        4.2825131476
 H       -12.1956487756        4.8565813489       -3.7194950169
 H       -10.9712751254        3.8196117282       -4.3202807853
 H       -10.8902572609        4.8595622063       -2.7888004333
 H       -14.0257597119        3.2760641973       -3.3794940932
 H       -13.6343716757        1.4994166405       -2.9972684858
 H       -13.0214158959        2.2315707357       -4.4420570998
 H        -8.4664794932       -2.7326566334       -0.4749098141
 H        -8.7711419327       -1.7457947205       -1.8306897749
 H        -9.9994835296       -1.7329659315       -0.6888060085
 H        -9.4193381368       -0.8146506177        1.6176799157
 H        -8.1089643411        0.2577274713        1.8335599152
 H        -7.8107344553       -1.4898347959        1.7869459325
 H        -1.7844429722       -1.6092609989       -4.3198812185
 H        -1.8999656554       -2.2760850647       -2.7015013137
 H        -2.6368265397       -0.7255500459       -3.1166430307
 H        -4.3937760772       -0.7707821497       -5.1632065877
 H        -5.1545606078       -2.3681962600       -5.5274393527
 H        -3.5035133912       -2.2419523822       -5.8929805446
 Na      -12.5614778300        6.4247558463        0.6540217185
