117

 C        -3.1232002567       -4.8870324022       -4.1731848545
 C        -4.1425242085       -3.9448161373       -3.5424730073
 O        -5.1567622997       -4.3452615403       -3.0131274612
 C        -3.8386878835       -2.3636713265       -3.7272687281
 C        -4.9605114912       -1.7624254131       -2.7959731464
 O        -6.0308219892       -1.4567512305       -3.2351575330
 C        -4.6016430401       -1.8406598730       -1.2600525755
 C        -5.9187898377       -1.7952941614       -0.4497327135
 C        -6.5401696407       -0.3974182368       -0.4478726996
 O        -5.8785261847        0.5598814302       -0.6709335218
 C        -8.0520524788       -0.2986541027       -0.0627000502
 C        -8.7480473994        1.0008798943       -0.7588464403
 O        -9.5086397350        1.6995062857       -0.1256101187
 C        -8.5542149969        1.2657161519       -2.2304987864
 C        -9.4702608437        2.4449360353       -2.6556335533
 C       -10.9287333300        2.1669704258       -2.4077668908
 O       -11.2763352045        1.0533488814       -2.1447137631
 C       -12.0642173408        3.2104648704       -2.5920514998
 C       -12.3359279677        3.6655813436       -1.1579356132
 O       -11.9579370185        4.7850958455       -0.8331470991
 C       -12.9463876211        2.7145628051       -0.1659751231
 C       -12.1431972128        2.6428228386        1.0925054521
 C       -12.5846604252        3.4705700205        2.2143699820
 O       -13.6002224702        4.1335045528        2.1750999392
 C       -11.6416973015        3.6488176761        3.4213156211
 C       -10.5627944475        4.7531802064        2.8091566352
 O       -10.8818105612        5.4484965900        1.8503552053
 C        -9.1549121477        4.9690692329        3.3152913772
 C        -8.4288029520        6.1771831275        2.7121877515
 C        -8.9749723620        7.5499617966        3.0848718922
 O        -9.3657154594        7.7046528116        4.2156539660
 C        -9.0549810919        8.7446663343        1.9722186577
 C       -10.5889326201        8.6898630022        1.6473567059
 O       -11.0603726243        7.7930100227        0.9969760181
 C       -11.4528539773        9.6792950015        2.4327106092
 C       -12.8991961657        9.3156092398        2.2712895639
 C       -13.4117692658        9.9226136280        0.9138958994
 O       -12.7816394327       10.7403585168        0.3462763995
 C       -14.7736747808        9.3302606163        0.3352990348
 C       -14.4454626094        8.3893854457       -0.8830943966
 O       -13.8710940534        7.3221873518       -0.7043664018
 C       -14.9296348302        8.7339820993       -2.2651524865
 C       -15.6230638122        8.4955362815        1.3910834566
 C       -15.6499168704       10.6145324086       -0.0971377550
 C        -8.6348471406       10.0890158152        2.6332757169
 C        -8.1219462914        8.5021704265        0.8055525128
 C       -12.3919189363        4.2253933242        4.6867511548
 C       -10.9497047760        2.4067820518        3.8194193894
 C       -11.6839090999        4.4755893016       -3.4155613419
 C       -13.3304570832        2.4728928533       -3.1308173785
 C        -8.8805091665       -1.5292309396       -0.5111987434
 C        -8.0676692331       -0.1296170548        1.4575356943
 C        -2.3699606206       -2.0146470670       -3.2519571691
 C        -4.0341344007       -1.8645375848       -5.1608115902
 H        -2.3856236176       -5.2660168016       -3.4087120595
 H        -2.4762030919       -4.5660507348       -5.0009270643
 H        -3.6214415965       -5.7928511630       -4.5149049193
 H        -4.0100965441       -0.9447488997       -0.9663119331
 H        -4.0080935719       -2.7123980554       -1.1454455897
 H        -5.7056752227       -2.0372345298        0.5549991173
 H        -6.5793798303       -2.5875893981       -0.8109752393
 H        -8.6202908388        0.3198797272       -2.7794513979
 H        -7.5399856076        1.6054408953       -2.3487261802
 H        -9.2949423606        2.5633562173       -3.7486999890
 H        -9.2122104287        3.3592682287       -2.2592433144
 H       -12.9904317112        1.6947296136       -0.5265191464
 H       -13.9527708239        3.1108409244        0.0725317858
 H       -11.1428840622        2.9879458783        0.8247047875
 H       -11.9549545525        1.5743639956        1.3873690077
 H        -8.5637861827        4.0529506666        3.1711940503
 H        -9.1507405507        5.2195212790        4.3476205500
 H        -8.3489362595        5.9873047138        1.5744647563
 H        -7.4169896023        6.1347516175        3.0644228079
 H       -11.3620893313       10.7074954567        2.0501917486
 H       -11.1964537957        9.6266708037        3.4919506011
 H       -13.5005417004        9.6045911627        3.1575759918
 H       -13.0678132039        8.2514430761        2.1543364889
 H       -14.1568817580        9.2880531100       -2.7699030135
 H       -15.8421965831        9.3310516045       -2.1797132401
 H       -15.3877622040        7.8663203062       -2.8283129824
 H       -15.8646570738        9.1345152360        2.2331592920
 H       -15.0494759630        7.6544026484        1.6642490879
 H       -16.5380964046        8.1004843418        0.8621457343
 H       -15.6376820893       11.3863039812        0.6542657293
 H       -16.6692058443       10.4213484908       -0.0761375272
 H       -15.2242463494       11.0110022553       -1.0254358939
 H        -8.9515536366       10.9717122245        2.1236236695
 H        -7.5583358403       10.0760833521        2.6703644878
 H        -8.7972234708       10.1204913091        3.7915790962
 H        -8.5294963646        7.6163557127        0.2814201836
 H        -7.1065137869        8.3088094548        1.2204559277
 H        -8.1014831815        9.3361267245        0.1319933313
 H       -13.0938393504        3.3625815720        4.8249673150
 H       -12.9456117041        5.1210144743        4.4957799966
 H       -11.7374949314        4.3078968875        5.5567691871
 H       -10.2638338066        2.1542678774        3.0368348712
 H       -11.5789620504        1.5484186238        3.9527737679
 H       -10.2978607055        2.5123185027        4.7361056354
 H       -12.5637334946        5.0891157053       -3.4532053553
 H       -11.5629035025        4.1632590922       -4.4652793433
 H       -10.8502506656        5.1734699231       -3.0829912995
 H       -14.1661359878        3.0334452196       -2.8448867699
 H       -13.2333832510        1.4776219494       -2.5717850083
 H       -13.3481825165        2.3070952932       -4.2096314851
 H        -8.7512359052       -2.3828694196        0.1316594225
 H        -8.6354716273       -1.8847953713       -1.5082892798
 H        -9.9498438269       -1.0723443250       -0.5269216915
 H        -9.0667497289        0.1593427309        1.7245973881
 H        -7.3684526365        0.5899310376        1.9118228371
 H        -7.7588434478       -1.0143713507        1.9587185066
 H        -1.6682599187       -2.5952286741       -3.8917120416
 H        -2.1865128537       -2.2935685407       -2.2110506534
 H        -2.2006501858       -0.9525823079       -3.4023434273
 H        -4.2867296555       -0.8032292208       -5.1503767678
 H        -4.9426069242       -2.3469566482       -5.5534296402
 H        -3.1587967110       -2.1885092464       -5.7455372127
 Na      -12.8422179966        6.1600870275        0.7945036095
