117

 C        -3.3571722635       -5.0875231071       -4.1430948329
 C        -4.3601752683       -4.1698413377       -3.4119611911
 O        -5.2807542925       -4.5610268988       -2.7250751248
 C        -3.9904768531       -2.6145621048       -3.5694225525
 C        -4.8510663954       -1.6715587507       -2.7052595833
 O        -5.6932776736       -0.9459025440       -3.2237450091
 C        -4.7127706141       -1.8167199323       -1.2005916868
 C        -6.0723658444       -1.6706201897       -0.4249184542
 C        -6.5948142033       -0.2149796270       -0.4401987447
 O        -5.8612464117        0.7266688885       -0.6867630145
 C        -8.0563277923        0.0800122587        0.0600326023
 C        -8.5651081967        1.4111103756       -0.5158194986
 O        -9.0594242368        2.3166170356        0.1426679062
 C        -8.5199501618        1.5046473839       -2.0519667047
 C        -9.5128915039        2.5184793518       -2.5100181849
 C       -11.0292571039        2.0886292469       -2.4911669921
 O       -11.3435910068        1.0086122423       -2.0311112414
 C       -11.9729380237        3.2427274590       -2.7312335564
 C       -12.3054750593        3.7790716284       -1.2020678394
 O       -11.9203162038        4.8742115104       -0.8814899218
 C       -13.0749497179        2.9077970564       -0.1587527241
 C       -12.3410812377        2.7203828395        1.1662148344
 C       -12.5345479130        3.6631897264        2.3064220587
 O       -13.5732318614        4.2782643756        2.3935179653
 C       -11.4515152780        3.7244469958        3.5453381718
 C       -10.3723534000        4.7148048576        2.9670508551
 O       -10.7448170264        5.5631484938        2.1307640349
 C        -9.0025899525        4.8097994590        3.5871286547
 C        -8.1971077225        5.9684928188        2.8744615898
 C        -8.9302882036        7.2506081527        3.0055159762
 O        -9.3099815357        7.5988162345        4.0924771363
 C        -9.1983649482        8.2085028123        1.7201221354
 C       -10.7158712196        8.4426041555        1.5251159443
 O       -11.3303421133        7.8111014600        0.7132280150
 C       -11.4083441868        9.5670389014        2.2846385052
 C       -12.8957177789        9.4369962499        2.1221995465
 C       -13.4235245023        9.7990842004        0.6675320540
 O       -12.6790546843       10.4039836878       -0.0675029411
 C       -14.9113932100        9.4482281847        0.2527403468
 C       -14.6337325766        8.4366510248       -0.9954981881
 O       -14.2546439930        7.2762154765       -0.7861815209
 C       -14.7009225264        8.9178962775       -2.3997066242
 C       -15.6663777504        8.6146323319        1.3287497403
 C       -15.7352438403       10.5907546534       -0.2101672998
 C        -8.3787427152        9.3789297089        2.1845411865
 C        -8.4806397951        7.6295396495        0.4120496759
 C       -11.9253114415        4.5618272383        4.6954968691
 C       -11.0360653444        2.2782206549        4.0540039123
 C       -11.4185381852        4.2937992506       -3.5691645948
 C       -13.3701994712        2.6684069373       -3.2715807899
 C        -9.0902012232       -1.0009732181       -0.4486210852
 C        -8.0282979398        0.0553826715        1.6405652614
 C        -2.4750493661       -2.4649035774       -3.2568657921
 C        -4.2311684796       -2.1966736364       -5.1343307648
 H        -2.4362952613       -5.2367834044       -3.6144381191
 H        -2.9890144535       -4.8016911724       -5.0542138407
 H        -3.8219188439       -6.0399543739       -4.4231505775
 H        -4.0084449394       -1.0386530270       -0.8472702600
 H        -4.3124913449       -2.7901889232       -1.0495187363
 H        -5.8452932870       -1.9525998667        0.6182384704
 H        -6.7457996007       -2.4847190730       -0.7990700722
 H        -8.6220470473        0.4633878643       -2.4070161234
 H        -7.5198333374        1.8152553762       -2.2471931219
 H        -9.2225440830        2.9068881841       -3.5165490073
 H        -9.4570036886        3.3816902762       -1.9175046731
 H       -13.3201400668        1.9514188986       -0.5178585164
 H       -13.9831914140        3.4137373331        0.1302297341
 H       -11.2929586621        2.6081528013        1.0131115173
 H       -12.6195021666        1.7193291966        1.5675865651
 H        -8.4326481821        3.8641205000        3.4279055089
 H        -9.0537054710        5.0156630435        4.6815129523
 H        -8.0240185739        5.5966758880        1.8166223019
 H        -7.2313614470        6.0117462047        3.3048931163
 H       -11.0597935932       10.5599790685        1.8793748079
 H       -11.1922248134        9.4166965747        3.3620709672
 H       -13.4699216811       10.2313642975        2.6865144902
 H       -13.1972268870        8.4572348881        2.5272021679
 H       -14.8498103598        9.9816654441       -2.4969242299
 H       -15.4446025113        8.3116808780       -2.8828779994
 H       -13.8097966355        8.6208434548       -2.9714736575
 H       -15.7336788015        9.1086969847        2.2905882886
 H       -15.1949877268        7.6854349290        1.4291477020
 H       -16.7088986572        8.4689030763        0.9137906883
 H       -16.1597466159       11.1122389063        0.5911531645
 H       -16.5294293252       10.1630940483       -0.8527104549
 H       -15.0982631250       11.2388199041       -0.8085302538
 H        -8.4629910154       10.2362991848        1.5217199546
 H        -7.3148479771        9.1804237773        2.1740287896
 H        -8.5563528387        9.6900483764        3.2936292992
 H        -9.0983636246        6.8200476033       -0.0735590709
 H        -7.4773899930        7.3100566134        0.6619391981
 H        -8.3938716493        8.5192953528       -0.1876712429
 H       -12.7407217013        4.0359036538        5.2279925739
 H       -12.3792043401        5.4008953045        4.2774710970
 H       -11.1233961827        4.7205263737        5.3356201103
 H       -10.3235011399        1.8237632717        3.3733674892
 H       -11.7159859529        1.5549053893        4.3055218459
 H       -10.4665505108        2.4874137688        4.9703718636
 H       -12.1651721081        5.0185686883       -3.7621298728
 H       -11.1323818195        3.8948451079       -4.5399760929
 H       -10.4391761696        4.6249949655       -3.2076043795
 H       -14.1758742257        3.3298684354       -3.0312373980
 H       -13.5005839039        1.7282901648       -2.6890422939
 H       -13.3678284453        2.5115963731       -4.3590206099
 H        -8.8043448443       -1.9892957417       -0.1336628309
 H        -9.1862864932       -0.8947320796       -1.5383626442
 H       -10.0446687178       -0.8779645692        0.1433245649
 H        -9.0132353725        0.1206794663        2.1386385747
 H        -7.3662763822        0.8691490790        2.0156812375
 H        -7.5518109421       -0.8690832780        2.0071184777
 H        -1.8387947736       -3.0667884009       -3.9421884716
 H        -2.3794383233       -2.7520358803       -2.2176625691
 H        -2.1934362603       -1.4082996237       -3.3313285220
 H        -3.3926394808       -1.6209432200       -5.4110897505
 H        -5.1020597898       -1.5785711771       -5.0951368114
 H        -4.2667036013       -2.9938461735       -5.8989648239
 Na      -12.7839564193        6.2668271006        0.8518238137
