117

 C        -3.4759811361       -5.1565174460       -4.1149413679
 C        -4.3568065862       -4.2395183084       -3.4159995429
 O        -5.2685623200       -4.5886063384       -2.6728463988
 C        -4.0671598674       -2.6742233481       -3.6185103235
 C        -4.9351283692       -1.7300059801       -2.6784125902
 O        -5.5842802635       -0.7902958973       -3.1291736826
 C        -4.7342285857       -1.7507817444       -1.1520431407
 C        -6.1149359967       -1.5762607105       -0.4576176949
 C        -6.5933348696       -0.1769040717       -0.4331624940
 O        -5.9295337147        0.8306258611       -0.7364132788
 C        -8.0875053732        0.0694188548        0.1418693997
 C        -8.5218097628        1.4316047051       -0.4321749686
 O        -8.8677627103        2.4216252578        0.2108528238
 C        -8.4842207170        1.5232804590       -2.0368951703
 C        -9.4919468750        2.5788436558       -2.4520282466
 C       -10.9562607127        2.0918187101       -2.3025622050
 O       -11.3245668854        0.9289918494       -2.0605336750
 C       -11.9971621760        3.2678988049       -2.5618120624
 C       -12.3394271866        3.7739265191       -1.1670681815
 O       -11.9727996733        4.9060842701       -0.9312503817
 C       -13.0121291784        2.9010094773       -0.1889907163
 C       -12.1620557568        2.7488809569        1.1600332921
 C       -12.5899394605        3.6860214800        2.3801268254
 O       -13.5389093724        4.4780024249        2.4150147879
 C       -11.4590787204        3.7590995460        3.4700818812
 C       -10.4008557702        4.6485688755        2.9191686586
 O       -10.7003362873        5.5836792076        2.1984351275
 C        -8.9476950527        4.5864546645        3.4835126638
 C        -8.1262664773        5.8355912547        2.9468538052
 C        -9.0013931314        7.1404372227        3.0060790008
 O        -9.4667632274        7.6150064472        4.0353194987
 C        -9.0870075795        8.0774617718        1.7108747838
 C       -10.6486837265        8.4288246487        1.4816482064
 O       -11.3085415328        7.9865117076        0.5454657743
 C       -11.3490893670        9.5474027925        2.2631777753
 C       -12.8989358441        9.4595827913        2.1965643222
 C       -13.4220556727        9.7822561942        0.7302587166
 O       -12.7133882380       10.3227700351       -0.1197419731
 C       -14.8739573452        9.3229181436        0.1917578463
 C       -14.5855136465        8.3834946002       -0.9957366853
 O       -14.4100017729        7.2020880925       -0.6993266262
 C       -14.6054111545        8.9244342845       -2.4337869001
 C       -15.6355215499        8.5638378247        1.2980449016
 C       -15.6412968697       10.6517606693       -0.2626276684
 C        -8.3778776546        9.4340492382        1.8996397012
 C        -8.6163709811        7.3627423719        0.3977730462
 C       -11.9418556823        4.5955290057        4.7619198536
 C       -11.0806913762        2.3334374517        3.8643281398
 C       -11.5234345782        4.4360879264       -3.4956024173
 C       -13.2925850026        2.5540803290       -3.2778113636
 C        -9.1360198929       -0.9359789764       -0.2925344832
 C        -8.0512984909        0.0978357643        1.6649519580
 C        -2.5683676974       -2.5729925074       -3.2324216075
 C        -4.2701894915       -2.2661829740       -5.1063761142
 H        -2.5391632219       -5.2407943141       -3.5813332732
 H        -3.0760418338       -4.9206243944       -5.0958792408
 H        -3.9174657438       -6.1448889255       -4.3435636182
 H        -4.1220728903       -0.8973404968       -0.9596764505
 H        -4.2341275896       -2.7047651318       -0.8472992873
 H        -6.1097127345       -2.0243935376        0.4976735951
 H        -6.7973316396       -2.1704255844       -1.0325167481
 H        -8.6265990146        0.5003578354       -2.3386107697
 H        -7.4807654863        1.8348313490       -2.2782434646
 H        -9.4327190852        2.8674231269       -3.4434862536
 H        -9.2719140900        3.5023963653       -1.8926433980
 H       -13.1919636584        1.9394927202       -0.6280380442
 H       -13.9794174400        3.2879705962        0.1858226030
 H       -11.0856328614        2.9425823084        1.0151676724
 H       -12.1846769539        1.6877971509        1.4740835632
 H        -8.4476977514        3.6995499348        3.3068544828
 H        -8.9765541407        4.7568496422        4.5811959080
 H        -7.8054139309        5.5906358559        1.9482696843
 H        -7.1663806398        5.8711404126        3.5550898843
 H       -11.0584867590       10.3949566847        1.6407372197
 H       -11.0330214654        9.6554499366        3.3009977514
 H       -13.4498927934       10.1407285395        2.9010262467
 H       -13.1890470379        8.4364601948        2.4332250484
 H       -14.8637921160       10.0198353069       -2.5833452239
 H       -15.2229604490        8.2314153895       -3.0283764111
 H       -13.6425281819        8.7844429921       -2.8819604693
 H       -15.7600253547        9.2452923135        2.1484026664
 H       -15.1014698548        7.6782912958        1.6564605279
 H       -16.6130443907        8.3041855348        0.9202271671
 H       -15.6308279676       11.2681744442        0.6073726394
 H       -16.6863404606       10.3694661212       -0.6428030669
 H       -15.1323091700       11.1846265990       -1.0251427552
 H        -8.5228441487       10.1297104129        0.9958376379
 H        -7.2590966775        9.3752417515        1.9676090831
 H        -8.6662144871        9.9193687548        2.7606489785
 H        -9.4786035874        6.7577512993        0.0384613413
 H        -7.7339585957        6.7828511470        0.4868338239
 H        -8.4319272246        8.2473182952       -0.2643892749
 H       -12.6956245900        3.9994250736        5.2357368364
 H       -12.4941274766        5.4757356739        4.4210235261
 H       -11.1377305265        4.6992732214        5.4542185156
 H       -10.3967064568        1.8331857782        3.1214768075
 H       -11.9060623593        1.6504001973        3.9867434037
 H       -10.6147752554        2.3331299635        4.8009716466
 H       -12.3571927564        5.1339483943       -3.6731440817
 H       -11.1987696761        4.0688360473       -4.4635910747
 H       -10.6210767289        4.8336998163       -3.1491315028
 H       -14.2296991088        3.1822630518       -3.0950888697
 H       -13.4877484157        1.5748652375       -2.9620921069
 H       -13.0548313971        2.6220796370       -4.3525594973
 H        -8.9644598036       -1.9316731413        0.1823437634
 H        -9.0715798511       -0.9257997673       -1.4070680337
 H       -10.0679176820       -0.6993260345        0.0873593989
 H        -9.0075070921        0.4114746293        2.1472052323
 H        -7.2982976742        0.8124177467        1.9316784898
 H        -7.8130951710       -0.8751999436        2.1429941119
 H        -1.9277371676       -3.2798137443       -3.7766139196
 H        -2.5352603293       -2.6943887406       -2.1554372696
 H        -2.2196262422       -1.5354937314       -3.4728541724
 H        -3.3936619719       -1.7813727003       -5.4582931524
 H        -5.2072512706       -1.7433628200       -5.2077324974
 H        -4.2156599462       -3.1954192143       -5.7151418733
 Na      -12.7740230010        6.3629036095        0.7782981873
