117

 C        -3.7882088507       -5.3504291304       -4.0466012842
 C        -4.4684647513       -4.2149566482       -3.2505483145
 O        -5.3868129813       -4.5244196295       -2.4926589833
 C        -4.0479052294       -2.7530110579       -3.5780641388
 C        -4.9296322561       -1.7127979067       -2.6832266537
 O        -5.4893353706       -0.7959824249       -3.2484720608
 C        -4.8245678818       -1.8428707231       -1.1735568511
 C        -6.1764033358       -1.6274058349       -0.4789548963
 C        -6.6814032314       -0.1734090708       -0.3573323751
 O        -5.9697420717        0.7541115573       -0.6569413794
 C        -8.0746746703        0.1532572690        0.2409755683
 C        -8.5260965778        1.5500272152       -0.3251840078
 O        -8.6602723838        2.5109023418        0.4030267871
 C        -8.4487471476        1.7311119943       -1.8905074774
 C        -9.3951597523        2.7239156309       -2.5014778958
 C       -10.8646232501        2.2423594449       -2.3274073920
 O       -11.1096000104        1.1271907382       -2.0175762046
 C       -12.1160211145        3.3049038752       -2.5544394742
 C       -12.4478547892        3.7911670944       -1.1617985572
 O       -12.1864362897        4.9609355829       -0.8772987981
 C       -13.0720826788        2.9377260259       -0.0756606219
 C       -12.1471325785        2.8537727203        1.1487856211
 C       -12.5223705073        3.8923795204        2.2217043581
 O       -13.4298412654        4.6913209937        2.1205326732
 C       -11.5247377864        3.8010370094        3.4645229131
 C       -10.3939398736        4.8105849391        2.9762811957
 O       -10.7646716869        5.6056165929        2.0967411213
 C        -8.9347916327        4.6514949226        3.2686614631
 C        -8.1294164236        5.9452964717        3.0628805277
 C        -9.0595382455        7.1607417001        2.9126115206
 O        -9.6920195371        7.5069399032        3.8844022118
 C        -9.1057877864        7.9359104744        1.5518826254
 C       -10.6591381455        8.4008588952        1.2602745208
 O       -11.2969495452        8.0567193960        0.2827129956
 C       -11.2508647923        9.3810448988        2.2245920234
 C       -12.8097604520        9.4006807382        2.1386914215
 C       -13.2781796080        9.7370101660        0.6230693705
 O       -12.6142330366       10.4189987334       -0.1137952870
 C       -14.8102533397        9.2363279328        0.2569625778
 C       -14.5681305450        8.2577321337       -0.9598829658
 O       -14.5236263237        7.0678657980       -0.6752701251
 C       -14.3748085500        8.7326376771       -2.3709856843
 C       -15.6440899508        8.6255121605        1.3511827050
 C       -15.4247261453       10.5798200144       -0.0898879571
 C        -8.1639458964        9.2148899094        1.5433086675
 C        -8.7173851314        7.0675852503        0.3021408518
 C       -12.2452531724        4.3498896852        4.7482400328
 C       -10.9471838026        2.4517446030        3.8230885562
 C       -11.6833963214        4.4513454760       -3.4401190245
 C       -13.2876465691        2.4595151360       -3.1312756442
 C        -9.0946371994       -1.0081006630       -0.1192498062
 C        -7.9427007938        0.3165683301        1.8091531406
 C        -2.5105180596       -2.4615155672       -3.1795421194
 C        -4.3635987176       -2.3930565391       -5.0390500073
 H        -2.8434793182       -5.7533054629       -3.6481729616
 H        -3.4063229133       -5.1069243909       -5.0229896411
 H        -4.4810008093       -6.1482651130       -4.3147333359
 H        -4.1613175883       -1.0062764636       -0.8111107868
 H        -4.4138473745       -2.8045216192       -0.9376583393
 H        -6.0073197113       -2.0753549356        0.5375146938
 H        -6.9275777892       -2.3096051268       -0.9287395432
 H        -8.5674481958        0.6663896317       -2.1799490179
 H        -7.3881786762        2.0171421969       -2.0583286502
 H        -9.2152399495        2.8647312424       -3.6497519235
 H        -9.2524363073        3.7251967803       -2.0743301363
 H       -13.4341139654        1.9080127773       -0.3426035697
 H       -13.9568075152        3.5128951815        0.2555143215
 H       -11.1107760317        2.9845491142        0.7908756007
 H       -12.1474508742        1.8503052321        1.5836619890
 H        -8.5866819262        3.8197461103        2.5629594683
 H        -8.7750420773        4.3182388835        4.2684365749
 H        -7.4054582898        5.7692285019        2.2389323498
 H        -7.5383779568        6.0583294138        3.9199050978
 H       -10.8948729529       10.3748376379        1.9330417821
 H       -10.9761216585        9.1872025914        3.2519919404
 H       -13.0318433932       10.2312335505        2.7617874198
 H       -13.2733974894        8.5287784211        2.5954363519
 H       -15.0166492395        9.5769953995       -2.4777575458
 H       -14.6104074169        7.9947034776       -3.1372350107
 H       -13.3486385969        9.1463411354       -2.6115237433
 H       -15.7260512031        9.2917204037        2.2151032268
 H       -15.1158588771        7.7421975456        1.6991240166
 H       -16.6682426065        8.3611494758        0.9820957917
 H       -15.3970480206       11.1263979834        0.8731313287
 H       -16.3645910054       10.4279718710       -0.5778556584
 H       -14.8039854509       11.2052681339       -0.8054831052
 H        -8.2197287828        9.7788692498        0.6756134310
 H        -7.1556718651        8.9191611614        1.6276455542
 H        -8.4037220702        9.9936996067        2.3752838613
 H        -9.0161432700        6.0688265184        0.5614368670
 H        -7.6170337956        7.0585979487        0.2557035188
 H        -9.1682413715        7.4281670797       -0.5707649598
 H       -13.0452195353        3.6497914336        5.1404928414
 H       -12.7583274179        5.2908898050        4.5442003430
 H       -11.4685817115        4.3240322152        5.5418370200
 H       -10.4763099239        2.0572786441        2.9363513299
 H       -11.7750518378        1.7557785632        4.0169847750
 H       -10.2144253971        2.3135613442        4.6918332023
 H       -12.5736211889        5.0282766870       -3.5872966910
 H       -11.2481796381        4.1696351636       -4.3994508150
 H       -10.8852128274        5.0789181727       -2.9563784999
 H       -14.1882768424        3.0023776869       -3.0934308789
 H       -13.4478133405        1.5917043146       -2.4062900308
 H       -13.0412292175        2.1068103432       -4.1300953284
 H        -9.0772409639       -1.7612035157        0.6010210108
 H        -8.9382688268       -1.3173093987       -1.1043017759
 H       -10.1405728947       -0.5861339670       -0.0476755087
 H        -8.8404012101        0.7462563264        2.1893045894
 H        -7.1406425972        1.0373337325        2.0557532929
 H        -7.8929738431       -0.6188432510        2.3311897053
 H        -2.0171101370       -2.9241514675       -4.0219479528
 H        -2.1478600174       -2.8246545232       -2.2203186699
 H        -2.3177537744       -1.4265550110       -3.3029286604
 H        -3.7291879708       -1.5324484886       -5.3130747778
 H        -5.4506151940       -2.2331203758       -5.0259045313
 H        -4.0513604533       -3.1536270965       -5.7467413481
 Na      -12.7743751463        6.3081432244        0.7452294567
