117

 C        -4.0596112868       -5.3552966573       -3.8422934046
 C        -4.6192461895       -4.1606494019       -3.1475851692
 O        -5.4542166045       -4.2608908785       -2.2761646800
 C        -4.0970102737       -2.7381747073       -3.5742976581
 C        -4.9601881512       -1.6992381736       -2.6657614561
 O        -5.6649854695       -0.8819844427       -3.1721453478
 C        -4.8748561535       -1.8834045134       -1.0714946402
 C        -6.2938129651       -1.6741528050       -0.4327722118
 C        -6.5461449620       -0.2166769119       -0.3138580742
 O        -5.7030911574        0.6111873668       -0.4969764161
 C        -7.9537588255        0.3184011339        0.2893147786
 C        -8.4223853085        1.6843989248       -0.3111142725
 O        -8.9204591668        2.5118153417        0.4341059107
 C        -8.3830934811        1.8550304001       -1.8671565553
 C        -9.3962362591        2.9082695922       -2.2331894138
 C       -10.8411149270        2.3123864119       -2.2162438809
 O       -11.0243517695        1.1866474446       -1.8000866674
 C       -12.1820274428        3.2130079415       -2.5901218262
 C       -12.4643438987        3.9050663860       -1.2344937226
 O       -12.2435858258        5.0802849055       -0.9928473118
 C       -13.1619300577        2.9643914422       -0.2119162158
 C       -12.3668299888        2.5854464026        1.1218858338
 C       -12.5164423118        3.6625371145        2.1897970578
 O       -13.4175219494        4.5002912687        2.1354912402
 C       -11.5112593987        3.8077472382        3.3679385007
 C       -10.5135239085        4.9406744904        2.8702859992
 O       -10.8158654430        5.8273448790        2.1280391036
 C        -9.0303121767        4.7354108450        3.2399092716
 C        -8.2296264876        6.0593615150        3.0516321927
 C        -9.1028130935        7.1970108205        2.7230054278
 O        -9.6654311249        7.7158086898        3.6845573067
 C        -9.0678227495        7.8398430043        1.3229289267
 C       -10.5262303104        8.4042249272        1.0465625090
 O       -11.2075746456        7.7762718945        0.2270990424
 C       -11.1414139146        9.3658629672        2.0442200740
 C       -12.7029236897        9.3316510462        2.0418249384
 C       -13.1879197182        9.7983955902        0.7099740748
 O       -12.5087236012       10.4786627215       -0.0330083713
 C       -14.7101996195        9.2583495550        0.3141950477
 C       -14.4403180598        8.2420537870       -0.7934317223
 O       -14.5039155987        7.0413339923       -0.5810651294
 C       -14.2777908643        8.7572615861       -2.2215683852
 C       -15.3961810107        8.6200390628        1.5509795130
 C       -15.4833323626       10.5063151385       -0.3407202399
 C        -8.0543476767        8.9684627062        1.4820542034
 C        -8.7485787366        6.7852577251        0.2084192245
 C       -12.3293787711        4.3972305077        4.5538713161
 C       -10.7239407750        2.4624325196        3.8003750862
 C       -11.8269064215        4.3000436944       -3.6413248792
 C       -13.2294400399        2.3796387556       -3.2108639433
 C        -9.1374781734       -0.6627186272        0.0084380484
 C        -7.7693366573        0.3644316125        1.8303743756
 C        -2.5556730723       -2.6692048996       -3.2420042540
 C        -4.3547407746       -2.4879332911       -5.1431297372
 H        -3.3089078506       -5.8083576006       -3.2519549173
 H        -3.5044793624       -5.2002700387       -4.7927955807
 H        -4.7850733376       -6.0838572636       -4.0590455929
 H        -4.2236925412       -1.1299023972       -0.6971847719
 H        -4.4841126308       -2.9074073862       -0.8544840756
 H        -6.3497098323       -2.1897797630        0.5412734310
 H        -6.9801265065       -2.2681041624       -1.0615729929
 H        -8.4718600782        0.9176707220       -2.3532042441
 H        -7.3730681555        2.2272211611       -1.9715355664
 H        -9.1303542895        3.2361605481       -3.1701325676
 H        -9.5003937808        3.8191856360       -1.5841927684
 H       -13.5267863853        2.0453737113       -0.5856136569
 H       -14.0404725875        3.5080510411        0.0848747082
 H       -11.3407852261        2.3581930285        0.8510201657
 H       -12.7670416244        1.6565225099        1.5433866918
 H        -8.6583162478        3.9587755587        2.5896372209
 H        -8.9431611121        4.3609826171        4.3187842015
 H        -7.4441220874        5.8606512434        2.3681691489
 H        -7.7464318815        6.3727883847        4.0423020232
 H       -10.8573822352       10.3825579334        1.6922004483
 H       -10.7615858880        9.1995825051        3.0950646793
 H       -13.0138437673       10.0148679122        2.8905084632
 H       -13.1211550044        8.3329301930        2.2696526267
 H       -15.2175846339        8.8433290450       -2.7922471812
 H       -13.6980889597        8.0140941742       -2.7723184365
 H       -13.8454885456        9.7144243512       -2.2952386603
 H       -15.2040950712        9.2284063608        2.4395155493
 H       -15.0329607580        7.5903459395        1.7807382478
 H       -16.4463307553        8.5759063199        1.4544044507
 H       -15.6700202966       11.1958909172        0.4726124646
 H       -16.2534139103       10.1618445317       -0.9997724370
 H       -14.8355520067       10.9931517578       -0.9688088934
 H        -7.8786405608        9.6129444463        0.5732555668
 H        -7.0618186587        8.5372547216        1.7559851112
 H        -8.3751762728        9.7012388059        2.1342048914
 H        -9.0203245262        5.7938618829        0.5242872327
 H        -7.7013938801        6.8309594458       -0.0464471194
 H        -9.4011076653        7.1185146082       -0.6357171559
 H       -13.1277821780        3.7502609485        4.7395520969
 H       -12.8122970577        5.2797059721        4.1192842617
 H       -11.8339649110        4.5526019052        5.4991836080
 H        -9.9411087047        2.1119680153        3.1223097133
 H       -11.3566506976        1.6153422558        4.0925891324
 H       -10.1897322087        2.7150660310        4.6440220835
 H       -12.7064665262        4.9716302230       -3.8752349090
 H       -11.4947659517        3.7865505972       -4.5581820802
 H       -11.0067569832        4.9385793772       -3.3338694111
 H       -14.1675621714        3.0169585640       -3.2365581152
 H       -13.4867467324        1.5003838441       -2.6924343938
 H       -12.8963215572        2.0801998058       -4.2148365049
 H        -8.8969788471       -1.7262346050        0.3977281906
 H        -9.4449920947       -0.6448570473       -1.0760152242
 H        -9.9769647988       -0.2726696475        0.5218419660
 H        -8.7544376648        0.4612223423        2.3365789809
 H        -7.2277145109        1.2288216034        2.1244815582
 H        -7.4006848829       -0.6020090781        2.2016639297
 H        -2.0206990610       -3.3738716743       -3.8594686132
 H        -2.4274839025       -2.9348274436       -2.1921216193
 H        -2.1645326937       -1.6489588772       -3.4164781617
 H        -4.6208434952       -1.4555511492       -5.2895326226
 H        -5.0497873339       -3.2142842241       -5.5192483628
 H        -3.3862949897       -2.5948557498       -5.5913963487
 Na      -12.8615917606        6.3882453165        0.7887164850
