117

 C        -3.0406499403        2.2475500639       10.0769139279
 C        -3.8572159504        2.7591501460        8.8501780492
 O        -4.9787047249        3.2392661034        9.1022307249
 C        -3.1636480229        2.9028702223        7.4066679163
 C        -4.1510974068        2.2587461875        6.3854631569
 O        -4.0699036936        1.1439581175        5.9297072816
 C        -5.5646736220        3.1083629162        6.1568437341
 C        -6.6311174068        2.0707419746        5.5492343967
 C        -7.8575858017        2.9413211473        5.0962065157
 O        -8.0707218179        4.0771888710        5.4905093055
 C        -8.8501652206        2.3179996962        4.0504552307
 C        -9.9567569226        3.3909443676        3.5953366558
 O       -11.0315831264        3.0449644123        3.1057338301
 C        -9.5162435213        4.8633372086        3.3617637347
 C       -10.7423814247        5.7260731777        3.0141173490
 C       -11.2945121590        5.6276048868        1.6244864938
 O       -10.6182926812        5.1680065564        0.6586498265
 C       -12.6274922632        6.3091721897        1.2765175159
 C       -13.2787306393        5.7432059770       -0.0395960218
 O       -12.9132879184        6.2226427945       -1.1071482204
 C       -14.3644648970        4.6818215382       -0.0153825922
 C       -14.2572289660        3.7250189531       -1.1684428190
 C       -13.8265572532        2.3279791981       -0.6871087907
 O       -14.1742178705        2.0412701761        0.4301096748
 C       -13.2371269445        1.0523589848       -1.5133778547
 C       -12.6010136547        1.5868508358       -2.8294298678
 O       -11.7851438624        2.5115485805       -2.6884597703
 C       -12.7579474202        0.8923732898       -4.1941796465
 C       -11.7924011958        1.2381456502       -5.3538083043
 C       -12.3255771578        2.2664512355       -6.3091770924
 O       -13.3473073594        2.8521002389       -6.1653492437
 C       -11.4770416277        2.8323317388       -7.5512196240
 C       -10.7490194094        3.9614034652       -6.8129484583
 O        -9.6928833863        3.7022885049       -6.2415994476
 C       -11.2358276647        5.4805097019       -6.8569410179
 C       -10.1553350249        6.4160399792       -6.0634003101
 C        -9.8531290437        6.0448850018       -4.5648325770
 O       -10.7659642134        5.9649539659       -3.7754188336
 C        -8.2334379730        5.6829544328       -4.0558897009
 C        -8.2605745363        4.1483218815       -3.6630634057
 O        -8.9459101431        3.8384804876       -2.6919440456
 C        -7.2796230443        3.1323856469       -4.2886522009
 C        -7.2073454748        5.9383154636       -5.1812282729
 C        -7.7779310042        6.4956883244       -2.7949508401
 C       -10.3762469420        1.8855789229       -8.1327443417
 C       -12.5037709357        3.3581759051       -8.6381060300
 C       -12.3017100842        0.4588518760       -0.4297658344
 C       -14.4022108015       -0.0139916046       -1.8131593473
 C       -13.7055778898        6.3284200680        2.4031853767
 C       -12.2174345120        7.7992043950        1.1418542275
 C        -8.0120938952        1.8749915697        2.7502164735
 C        -9.5840418170        1.1563471667        4.7111534674
 C        -2.8923543074        4.4064660082        7.1070284311
 C        -1.8153642833        2.1604224305        7.3953355678
 H        -2.3777550414        1.4725633514        9.7626917891
 H        -3.5768348429        1.8926953876       10.8806273535
 H        -2.3977624840        3.1073255105       10.3734956217
 H        -5.4910525456        3.9920435464        5.6257749777
 H        -5.9246184665        3.4041725594        7.1498488167
 H        -6.9241566980        1.3501607559        6.2248768143
 H        -6.2538073030        1.5758162145        4.6547557646
 H        -8.8875289179        4.7678561540        2.5003350800
 H        -9.0414478950        5.2673499133        4.2375589123
 H       -10.3560732069        6.8080417038        3.0763540324
 H       -11.5301972294        5.7124558966        3.7431741918
 H       -15.3423508398        5.2743976105        0.0063432188
 H       -14.4794211121        4.0456642004        0.8346111411
 H       -13.7912364152        4.2081934416       -2.0162948176
 H       -15.2843851896        3.4453967267       -1.6173854356
 H       -13.8289762009        1.0542349125       -4.4379874425
 H       -12.8389709812       -0.2026466257       -3.9453832833
 H       -11.5032496171        0.2934390956       -5.8569464475
 H       -10.8654995850        1.7833906340       -5.0347798607
 H       -12.2067200268        5.6239811953       -6.3877968388
 H       -11.3562693618        5.7956892733       -7.8648976775
 H       -10.6474383576        7.3652298478       -6.0550910977
 H        -9.2644585706        6.4916567890       -6.6179330355
 H        -6.9878170095        2.2558132334       -3.7545590910
 H        -6.2977871732        3.5863539251       -4.6009585062
 H        -7.7690752376        2.7504344821       -5.1778904143
 H        -7.3698512801        6.8895523857       -5.4758234216
 H        -7.0840236526        5.4025456189       -6.1653144365
 H        -6.2182850652        5.9733067255       -4.6688430351
 H        -8.5115963447        6.4490144701       -2.0125351237
 H        -7.7128793894        7.4787840411       -3.0933707528
 H        -6.8051434250        6.0747466169       -2.4987015218
 H       -10.8110152576        1.0713332199       -8.7204398380
 H        -9.7722466754        1.3881626849       -7.3837327176
 H        -9.7010722182        2.3474619543       -8.8735148931
 H       -12.5119391781        4.4096111611       -8.5890259792
 H       -13.5821359178        3.0971864388       -8.4281245485
 H       -12.1821657550        3.0100667684       -9.6069145069
 H       -12.7759996997        0.1775915202        0.5532535315
 H       -11.6130296195        1.3008849480       -0.3651737211
 H       -11.6703479075       -0.4077632457       -0.6793551809
 H       -14.9755223083       -0.3007987203       -0.9378002389
 H       -13.9146933314       -0.9138151912       -2.1059281707
 H       -15.2294092324        0.3850150529       -2.3997803849
 H       -14.6784453840        6.4173318753        1.9935238898
 H       -13.5225886001        7.0930777848        3.2277838191
 H       -13.6464939325        5.3434809570        2.7903197567
 H       -11.3566907356        7.9243567659        0.4799241016
 H       -11.8991417291        8.1625716762        2.1607426919
 H       -13.0066514063        8.4737521810        0.7548642399
 H        -7.2446370781        1.1073172788        2.9690173475
 H        -7.4930209488        2.8161059386        2.5632836087
 H        -8.6503899056        1.6634252760        1.8302842531
 H        -9.9971300032        1.4242538474        5.6755854637
 H        -8.9196698280        0.2998932301        4.8839062316
 H       -10.4104417961        0.7967129162        4.1250061353
 H        -3.8525062699        4.8648548608        6.9829281620
 H        -2.4029378771        4.4383054257        6.1660123152
 H        -2.2985902157        4.8843708818        7.9733561837
 H        -1.7421372349        1.0936819187        7.2969166086
 H        -1.3311945447        2.5155547515        8.2846158999
 H        -1.3820840407        2.4932510675        6.4137266404
 Na      -10.7727677365        5.0096129031       -1.7407333720
