117

 C        -4.1449707403       -5.4247669067       -3.7673684810
 C        -4.7100962499       -4.1770519453       -3.1310697350
 O        -5.5320575992       -4.2438164240       -2.2417736517
 C        -4.1666829753       -2.7243089088       -3.4776594687
 C        -4.9601743478       -1.7290470307       -2.6669784628
 O        -5.7823941328       -0.9098588252       -3.0559301505
 C        -4.8395113411       -1.8732407849       -1.1541120304
 C        -6.2741411088       -1.6340499957       -0.5775444869
 C        -6.4994352926       -0.1401624851       -0.2732901427
 O        -5.6250217041        0.6784036771       -0.4014944893
 C        -7.8898228065        0.3391816138        0.3133329821
 C        -8.4188415750        1.7356530001       -0.2631770178
 O        -9.0438226495        2.4767837400        0.4674134535
 C        -8.3503610160        2.0263057487       -1.7772795137
 C        -9.4913545348        2.9870768295       -2.1431752125
 C       -10.8380921003        2.2945455025       -2.1231161801
 O       -11.0763484666        1.2051917289       -1.7074700887
 C       -12.0765050845        3.1458484425       -2.6554907012
 C       -12.4911312345        3.8559338405       -1.2484663602
 O       -12.2316650435        5.0564124233       -1.0711926968
 C       -13.2278615093        2.9695359000       -0.2161352049
 C       -12.4250283371        2.5132209958        1.0583499653
 C       -12.5621073231        3.5713299908        2.0848203127
 O       -13.5117763589        4.3318829766        2.0735074285
 C       -11.5477549298        3.7777593645        3.2839496211
 C       -10.4812793709        4.8086570994        2.8350622093
 O       -10.9547007520        5.7905791027        2.2978972329
 C        -9.0305046044        4.6561417687        3.2756414836
 C        -8.1762857259        5.8768304337        3.0904583205
 C        -8.9872622077        7.2413166315        2.8212649467
 O        -9.5420808361        7.8812498614        3.6570244659
 C        -9.0371957442        7.8999526755        1.2546216086
 C       -10.5144290364        8.3484909019        1.0497386777
 O       -11.1821924108        7.7815765275        0.1467144981
 C       -10.9945532743        9.5239679149        1.8168433334
 C       -12.5224290521        9.3435050002        2.0136604670
 C       -13.2171020816        9.8095337785        0.7067657273
 O       -12.6242673364       10.5297610180       -0.0447435300
 C       -14.6499485784        9.3824912679        0.3152088756
 C       -14.4414665201        8.2114943589       -0.8293926700
 O       -14.4735546296        7.0437772062       -0.5537863561
 C       -14.1930199945        8.7063976987       -2.2264526585
 C       -15.4151174948        8.8051506880        1.5309136870
 C       -15.5351609707       10.4208923023       -0.2470668113
 C        -7.9510294592        9.0552255610        1.3081719642
 C        -8.7596801634        6.7766818988        0.1944379040
 C       -12.1929011677        4.4235856120        4.4706697354
 C       -10.7994199709        2.4977894919        3.6831176430
 C       -11.7656700274        4.2980971087       -3.6947386567
 C       -13.1684808560        2.2459983052       -3.2471333608
 C        -9.1626790718       -0.6027741678        0.0061455633
 C        -7.6395745929        0.4386597541        1.8485648092
 C        -2.6432501540       -2.7589024546       -3.1660530850
 C        -4.4014504466       -2.4807536687       -5.0585237370
 H        -3.4720322678       -5.9707467272       -3.0665132599
 H        -3.5887858296       -5.4461046493       -4.7289616875
 H        -4.9708095224       -6.1120538694       -3.8832600973
 H        -4.2287512362       -1.0443171932       -0.8205033914
 H        -4.3935630335       -2.8300569022       -0.8431265800
 H        -6.3156831424       -2.1641331291        0.3463425698
 H        -6.9245692497       -2.1667792069       -1.1715940335
 H        -8.4176960645        1.0704089005       -2.2715239763
 H        -7.3363593186        2.4182783741       -1.8839966500
 H        -9.2778515410        3.3532562201       -3.1218165076
 H        -9.7378767000        3.8362871709       -1.5354682950
 H       -13.6224077903        2.0188300997       -0.6473020245
 H       -14.1085819843        3.4657413496        0.1507669346
 H       -11.3697490855        2.1966284506        0.8393753766
 H       -12.9253168118        1.6569088935        1.4783824745
 H        -8.5664737188        3.7933162291        2.8035214839
 H        -9.1178584273        4.4355179851        4.2940044835
 H        -7.5022846082        5.6238098941        2.2577397141
 H        -7.5388885356        6.0512797406        3.9923462917
 H       -10.8342221055       10.3628232371        1.1446335330
 H       -10.4614575217        9.6470590861        2.7595228473
 H       -12.8533188753        9.9921425949        2.8266548957
 H       -12.7567000852        8.2980573893        2.3586882158
 H       -14.9822563236        8.5556301628       -2.9230952005
 H       -13.3832776546        8.0836897467       -2.6697217299
 H       -13.9872000437        9.8070137075       -2.2404401442
 H       -15.3592918454        9.4408331952        2.4048987523
 H       -15.0362063672        7.7928115443        1.8180261931
 H       -16.4547654343        8.6879169129        1.3394960675
 H       -15.8542578186       11.0623238037        0.6083423193
 H       -16.2327386479        9.9409884784       -0.8081568547
 H       -14.9582697506       11.0313032208       -0.9428844163
 H        -7.7538569542        9.5182916153        0.3886406430
 H        -7.0061994685        8.6474789512        1.6591625412
 H        -8.2822947145       10.0238955155        1.8793374742
 H        -9.3661312394        5.9163457211        0.3755170176
 H        -7.6382740770        6.5742810156        0.1932061271
 H        -9.0541331658        7.2542795830       -0.7375673464
 H       -12.9305239611        3.8685377769        4.9855999529
 H       -12.5856369081        5.3303643393        4.0716068406
 H       -11.4027922578        4.7015268834        5.1992919521
 H       -10.0711764472        2.1681067371        3.0367371988
 H       -11.5280232243        1.7021259397        3.9135349787
 H       -10.2423290346        2.6881772552        4.6101517887
 H       -12.6176217017        4.9209071229       -3.9321424156
 H       -11.3769110247        3.8204568344       -4.5897434477
 H       -10.9924927841        5.0011166843       -3.3102339542
 H       -14.1703289669        2.6624074971       -3.2019873028
 H       -13.1709601577        1.2376602477       -2.7368301511
 H       -12.8516915295        2.0128181752       -4.2726210005
 H        -8.9339057130       -1.6752426503        0.1819532172
 H        -9.5605683886       -0.4404758969       -0.9891611343
 H       -10.0058702124       -0.2021450731        0.6646545742
 H        -8.6001193501        0.5909654482        2.3506200143
 H        -7.0253280750        1.3166664795        2.1338710188
 H        -7.2896620440       -0.5327050202        2.2140035477
 H        -2.1342732115       -3.6551292555       -3.5286548714
 H        -2.4915414836       -2.6773592818       -2.0503916862
 H        -2.2577560232       -1.8436481911       -3.6079972314
 H        -5.1167986495       -1.6381375662       -5.1944550407
 H        -4.7291046651       -3.4261168327       -5.5043289729
 H        -3.4814827477       -2.2259141131       -5.4858046209
 Na      -12.9093594819        6.3149059594        0.8451103519
