117

 C        -4.3116352835       -5.4544287670       -3.6943896521
 C        -4.9144425639       -4.2548437335       -3.0333614230
 O        -5.8232632300       -4.3726680215       -2.2526715855
 C        -4.3025937633       -2.8469221671       -3.3837645729
 C        -5.0704562801       -1.7684001975       -2.6268599562
 O        -5.7681056444       -0.9875959035       -3.2143101556
 C        -4.9378782414       -1.6825866882       -1.1368682379
 C        -6.2397839981       -1.3873165532       -0.4104650410
 C        -6.4947792276        0.0818494313       -0.2676338618
 O        -5.6404744193        0.9452593669       -0.3218099116
 C        -7.9065327983        0.3878024349        0.3851692707
 C        -8.5137444134        1.7751680455       -0.0611791129
 O        -9.1457331941        2.4844205690        0.7151632955
 C        -8.2954862545        2.2293637003       -1.5539649260
 C        -9.3722808490        3.0562592889       -2.1340127470
 C       -10.7817251037        2.2979962686       -2.0975387989
 O       -10.8862437109        1.2019428883       -1.5465411180
 C       -12.0546046127        3.0835373715       -2.6836014781
 C       -12.6410758863        3.7286847805       -1.3355962886
 O       -12.3038308117        4.8224787634       -0.9740162780
 C       -13.4024470448        2.7961819692       -0.3616572137
 C       -12.4530608535        2.5934507666        0.8877254484
 C       -12.6396690482        3.6201860812        2.0422808902
 O       -13.6953393507        4.2317866139        2.0978230321
 C       -11.6012302722        3.6679987353        3.1344747464
 C       -10.5612656787        4.8086107800        2.8025454041
 O       -10.9636866792        5.8186176024        2.2670531229
 C        -9.0863429628        4.6487957023        3.2940970775
 C        -8.1343966266        5.9068804201        2.9917380963
 C        -8.8025203364        7.3003755872        2.6924421131
 O        -9.1139812764        8.0305629146        3.6238394449
 C        -8.8969361382        7.9002331464        1.1389788297
 C       -10.3849774590        8.3310838195        0.9391736377
 O       -11.1499557070        7.7437062849        0.2096145143
 C       -10.8960954879        9.6486611348        1.6318458552
 C       -12.4101778328        9.6911861222        1.8003139121
 C       -13.2327777328       10.0316610604        0.5806376309
 O       -12.8405148755       10.8064058755       -0.2735757722
 C       -14.6966676659        9.3989706429        0.3430279800
 C       -14.4968486468        8.2740468567       -0.7132082769
 O       -14.4775842096        7.0728345641       -0.3853140924
 C       -14.0460106363        8.6828074488       -2.1466541754
 C       -15.3617577637        8.6885421478        1.5623342766
 C       -15.5339686613       10.5902623084       -0.2130069202
 C        -7.8810875023        9.0803476060        1.0294417980
 C        -8.5052029004        6.7409095024        0.1421984365
 C       -12.2116812649        4.1926599608        4.4531936665
 C       -11.0944641130        2.2181198230        3.4554463897
 C       -11.6566950990        4.1798023956       -3.6441890925
 C       -13.0941774342        2.1045713662       -3.3154534256
 C        -8.9441511365       -0.7080152098        0.1090004516
 C        -7.5879913784        0.5407721422        1.9387575175
 C        -2.7434558217       -2.8064052967       -3.0860722223
 C        -4.4858126399       -2.5804297982       -4.9240426922
 H        -3.6174975083       -6.0041951543       -3.0465081529
 H        -3.7467796077       -5.1945394980       -4.6076534559
 H        -5.0309402437       -6.2475155470       -3.9716441428
 H        -4.3023543225       -0.8107674466       -0.8727250699
 H        -4.4359189555       -2.5895013404       -0.7959877583
 H        -6.1883074406       -1.9013212842        0.5719898896
 H        -7.0562963807       -1.9822301944       -0.9332884906
 H        -8.0858584633        1.2689439557       -2.0507173295
 H        -7.3642066018        2.8212445009       -1.5397564218
 H        -9.0253783010        3.1904848169       -3.1949998343
 H        -9.5236828812        4.0689881193       -1.6675068205
 H       -13.7497644936        1.8424123639       -0.7118662038
 H       -14.3366992749        3.2723882463        0.0619090463
 H       -11.4428508148        2.7178302593        0.5401636631
 H       -12.5231531185        1.5637173405        1.3270388935
 H        -8.7502433818        3.7421667792        2.7878732665
 H        -9.0662450733        4.4258951506        4.4143344711
 H        -7.4240538527        5.6528215696        2.2300040808
 H        -7.5618933164        6.1247936341        3.8812234920
 H       -10.6285851284       10.4996417620        1.0005401773
 H       -10.4048082693        9.7503562448        2.6002062589
 H       -12.7153091425       10.4229761961        2.5591428981
 H       -12.7218155716        8.7635938508        2.2017726916
 H       -14.7519179463        8.3582558864       -2.9797389067
 H       -13.1883033816        8.0834734741       -2.4272994412
 H       -13.9358558556        9.7299672205       -2.2368847803
 H       -15.6901253990        9.3714716732        2.3682798010
 H       -14.8258323482        7.8739900764        2.0363654953
 H       -16.3071248959        8.2045030364        1.2355524623
 H       -15.7362730472       11.3034394234        0.5961445064
 H       -16.4809889276       10.1864943025       -0.7596255327
 H       -14.8949936882       11.0226852053       -0.9897574531
 H        -8.0254147008        9.6184284997        0.0501359305
 H        -6.8488908789        8.7412540887        1.0557548040
 H        -8.0086421572        9.8238285066        1.6873354033
 H        -9.3749723007        6.0663588086        0.0426598046
 H        -7.6154021228        6.2863591151        0.4596218838
 H        -8.2514120078        7.2083858633       -0.8167097946
 H       -12.7313568306        3.3464837021        4.9598024695
 H       -12.8447748162        5.1190182271        4.2607340501
 H       -11.4157866748        4.5430543418        5.1312411178
 H       -10.5033635513        1.7231003706        2.6024207380
 H       -11.9460520444        1.6258712144        3.7882357085
 H       -10.3439453438        2.2799714480        4.2253617679
 H       -12.4997626666        4.6809183254       -4.1378321821
 H       -10.9998945668        3.7259170661       -4.3816999744
 H       -11.2109142554        4.9808204141       -3.1051044819
 H       -14.1899475821        2.3845497454       -3.3309432271
 H       -12.9901683559        1.1569615076       -2.8561671798
 H       -12.8013223368        1.9075106664       -4.3649437963
 H        -8.5513872167       -1.6159958066        0.5323876582
 H        -9.0840384778       -0.9197784001       -0.9555120437
 H        -9.8528602083       -0.4086766426        0.4500281506
 H        -8.4194858908        1.0648096776        2.4551164688
 H        -6.7040880830        1.1242037573        2.1024282828
 H        -7.4447497591       -0.4606778410        2.3623294130
 H        -2.2898998826       -3.7566979787       -3.3878870619
 H        -2.6325955970       -2.7940945523       -2.0220037525
 H        -2.2605423204       -1.9042881877       -3.4950931024
 H        -5.5481770200       -2.7029574126       -5.1051786810
 H        -3.8444112820       -3.2245758741       -5.5564143203
 H        -4.1666995350       -1.4991326592       -5.0959548359
 Na      -12.8073541277        6.0499559938        0.8964814324
