117

 C        -4.4520156589       -5.5517803205       -3.6185769185
 C        -5.0638624264       -4.2920046806       -3.0289088934
 O        -6.0194357012       -4.4065103361       -2.2825155574
 C        -4.3977541694       -2.9138557070       -3.4869357542
 C        -5.0943768892       -1.7240393049       -2.6518227712
 O        -5.8679116283       -0.9604486164       -3.2180543874
 C        -4.7839825252       -1.5357777419       -1.1026303570
 C        -6.0747762256       -1.2048118799       -0.2497790360
 C        -6.5066695520        0.2317343890       -0.0609825441
 O        -5.8823056701        1.2180205389       -0.4809137594
 C        -7.8933028158        0.4981182333        0.7012390688
 C        -8.5070618324        1.8141529468        0.1114543080
 O        -9.2152408772        2.5769451747        0.7470127523
 C        -8.1762671528        2.2215837899       -1.3753996464
 C        -9.3167935926        3.0979937292       -2.0421963617
 C       -10.6310114535        2.2572459752       -2.0679051409
 O       -10.7892004467        1.1615644551       -1.5648853143
 C       -11.9387766337        3.0064322750       -2.6312685618
 C       -12.6112477395        3.5662942312       -1.3383807109
 O       -12.3670901342        4.7751118572       -1.1491644296
 C       -13.3752753376        2.7441014120       -0.3383352571
 C       -12.5636481144        2.4629758169        0.9370778372
 C       -12.8176195019        3.4681259388        2.0397562554
 O       -13.7150308670        4.3096041769        2.0480463333
 C       -11.6699097631        3.5461936707        3.1621228492
 C       -10.6474913914        4.8093931963        2.8540557732
 O       -10.9209386437        5.7520514360        2.1146488317
 C        -9.1531865578        4.6896859552        3.2579533295
 C        -8.2579824764        5.8729609478        2.8953350526
 C        -8.8411082912        7.3110930488        2.5327669148
 O        -8.8174940130        8.1030570506        3.4275704059
 C        -8.8865188164        7.8008272176        1.0452589301
 C       -10.3490414650        8.2841655994        0.9226161986
 O       -11.0873441293        7.5803070881        0.2531475270
 C       -10.7721070068        9.6179761553        1.4981187585
 C       -12.2865355256        9.8647631183        1.7195219293
 C       -13.1586730363       10.2119847677        0.4887098289
 O       -12.7731217716       10.9812585395       -0.3688434043
 C       -14.5664351633        9.4705121197        0.3743892536
 C       -14.3516406624        8.3294308330       -0.6868243798
 O       -14.3743808713        7.1807813789       -0.3094122197
 C       -14.0452627383        8.6177743171       -2.1610708422
 C       -15.1181233714        8.9468373198        1.7674434442
 C       -15.7477695696       10.4391221459       -0.2261528194
 C        -7.9713966159        8.9888977167        0.9625560375
 C        -8.5665812242        6.8121240675       -0.1340860579
 C       -12.5072246416        3.9228616476        4.5338452896
 C       -10.8354945606        2.2686953561        3.2774742792
 C       -11.6673032314        4.1815285088       -3.6006411151
 C       -12.8252281697        1.8508981482       -3.3074708230
 C        -8.9682746868       -0.5559915523        0.3752848331
 C        -7.7752730677        0.5678343602        2.2208325494
 C        -2.9034659089       -2.9332633854       -2.9492298260
 C        -4.5104664952       -2.8106940228       -5.0202311702
 H        -3.8367379197       -6.0568305185       -2.8837124609
 H        -3.8863617697       -5.3413147098       -4.4572068365
 H        -5.0978545512       -6.3969150563       -3.8058327418
 H        -4.1400374946       -0.6562684616       -0.9742350234
 H        -4.2270566695       -2.4137363442       -0.7539094578
 H        -5.8823880866       -1.6831142688        0.7324312319
 H        -6.8560123332       -1.8248558890       -0.6065940299
 H        -8.0514295335        1.2132536037       -1.7287145687
 H        -7.2008294093        2.6670607478       -1.3221772026
 H        -9.1023449831        3.3260207672       -3.0712611794
 H        -9.5682690440        4.0037819138       -1.5415299465
 H       -13.5934297831        1.7564676978       -0.7576680798
 H       -14.2958730228        3.1520421712       -0.0574248262
 H       -11.4889199769        2.5257936124        0.6572259996
 H       -12.7270805862        1.4962850722        1.3644919040
 H        -8.8584032712        3.7537814911        2.6906173949
 H        -9.0811296542        4.4445751335        4.2964355171
 H        -7.6396814496        5.6361103423        1.9786821449
 H        -7.5631495890        6.0467995913        3.7284177360
 H       -10.4132858636       10.4185628833        0.8013971818
 H       -10.1719713954        9.7132108166        2.4441574212
 H       -12.4921983731       10.6441290546        2.4662408133
 H       -12.6798724712        8.9288082684        2.2316997075
 H       -14.8111082359        8.5318742015       -2.8524033204
 H       -13.3699696755        7.8706944989       -2.5277547412
 H       -13.6639619764        9.6595647689       -2.1750871224
 H       -15.2136030728        9.7220872859        2.4989588486
 H       -14.5089514410        8.1640424119        2.2261237739
 H       -16.0923500085        8.4760193097        1.7405040410
 H       -15.9638650300       11.2004767021        0.4889435350
 H       -16.6277974381        9.8502172391       -0.1962085965
 H       -15.4968231036       10.8227809777       -1.2092927231
 H        -8.1749874304        9.7764932319        0.2657157770
 H        -6.9267865008        8.6851995954        0.8295262207
 H        -7.9439985924        9.4857681750        2.0168960106
 H        -8.9437287036        5.8473706621        0.1785971339
 H        -7.4643567589        6.8411566654       -0.3153800162
 H        -9.0399693455        7.0667073245       -1.0515253268
 H       -13.2453141829        3.1340077172        4.5648095826
 H       -12.9073931881        4.8867776877        4.5534466749
 H       -11.9090469786        3.8211917933        5.4362687160
 H       -10.2287195825        2.2172052611        2.4293915711
 H       -11.5395011715        1.4448898825        3.2863055010
 H       -10.1589595423        2.1943906162        4.1738067004
 H       -12.5887171258        4.6418501491       -3.8950140114
 H       -11.1647086287        3.8721778948       -4.5144717676
 H       -11.2263286910        5.0075783781       -2.9869134223
 H       -13.7033693130        2.3493232663       -3.6310465550
 H       -13.2033977911        1.0139090488       -2.6507119747
 H       -12.4549598710        1.4062471828       -4.2113742450
 H        -8.7446671139       -1.4996465797        0.8318758708
 H        -8.9505201335       -0.7872623263       -0.6720604266
 H       -10.0171522043       -0.0957118202        0.5878017355
 H        -8.7285870302        0.8052392924        2.6504112425
 H        -7.0239420859        1.3392343764        2.5104711328
 H        -7.3552236867       -0.3595341917        2.5817768568
 H        -2.2495064378       -3.5335338047       -3.5577939383
 H        -2.8435722188       -3.4530837657       -1.9865660418
 H        -2.5293754152       -1.9434526659       -2.8406998912
 H        -4.9706491010       -3.7632622294       -5.2600262901
 H        -3.6100157685       -2.6247901092       -5.5756069381
 H        -5.1533788745       -2.0080954812       -5.2394392680
 Na      -12.8107283152        6.0979872213        0.7254178785
