117

 C        -4.7261833897       -5.5381067724       -3.2724299475
 C        -5.3506170790       -4.2311106491       -2.8820475537
 O        -6.3566751374       -4.2306011356       -2.1920653919
 C        -4.4954622711       -2.8707142806       -3.2619595066
 C        -5.2518484019       -1.7245963841       -2.5291660810
 O        -6.1739289870       -1.1149056474       -3.0857260216
 C        -4.8122634638       -1.2987637394       -1.1307785588
 C        -6.0456118003       -1.1946850209       -0.1934919823
 C        -6.4741102186        0.2120558670        0.0044934860
 O        -5.7291304897        1.1455899049       -0.2806430888
 C        -7.8629251039        0.5819907116        0.7218080374
 C        -8.3811535755        1.9002636770        0.2037759475
 O        -8.9752574654        2.6946950033        0.9075023681
 C        -8.1482690827        2.3051498581       -1.3615456092
 C        -9.3260795077        3.0482140175       -1.9172515208
 C       -10.5867916394        2.2050994573       -2.0129355940
 O       -10.4997685955        1.0995110595       -1.5840800255
 C       -11.9109026936        2.7660442651       -2.6197589346
 C       -12.5881569477        3.4639558370       -1.4266384465
 O       -12.4433253864        4.6871131659       -1.2536145470
 C       -13.3792662241        2.6225834708       -0.3745012653
 C       -12.6259004948        2.2331110765        0.8828832026
 C       -12.6497963974        3.2940630083        1.9468401090
 O       -13.4270749544        4.2399438649        1.8698439990
 C       -11.6510170614        3.4695339118        3.1470267420
 C       -10.6924633796        4.7623761038        2.9029502759
 O       -11.1752621130        5.7328935511        2.3372602295
 C        -9.2789664467        4.9755592614        3.5153517905
 C        -8.3865651231        5.6186767735        2.4085214502
 C        -8.8112184967        7.1540338607        2.2844765296
 O        -9.0250950347        7.7578000187        3.2748691844
 C        -8.9213043467        7.8093613950        0.8246914658
 C       -10.3471012742        8.4869571797        0.7115706582
 O       -11.2130042699        7.8179241766        0.1104949550
 C       -10.6181427015        9.8868590551        1.2727206895
 C       -12.1039437561       10.0101514638        1.6428448126
 C       -12.9877296320       10.2613473109        0.4917296818
 O       -12.6459943936       10.9745980941       -0.4241884425
 C       -14.4244897651        9.5851992256        0.4264981246
 C       -14.4303818897        8.4293941567       -0.6233605660
 O       -14.6015795378        7.2777465183       -0.2862772797
 C       -14.1685641296        8.7601801302       -2.0217919134
 C       -14.9583047846        9.0227353384        1.7615534124
 C       -15.3268751012       10.7646303278       -0.1599767928
 C        -7.8429841287        8.8603934583        0.6596915526
 C        -8.7564095057        6.7060814915       -0.2853651888
 C       -12.4137176191        4.0197831222        4.3889149873
 C       -10.9544815645        2.0961017766        3.4073752528
 C       -11.5248311330        3.8617784415       -3.7061046986
 C       -12.7645844399        1.7073422018       -3.2909637749
 C        -8.8836549997       -0.5659730586        0.5260266910
 C        -7.4359938360        0.7686394063        2.1618987287
 C        -3.0717645780       -3.0681912357       -2.8865384307
 C        -4.6804110690       -2.6887146541       -4.8072247367
 H        -4.2063227320       -5.9984351653       -2.4158708592
 H        -4.1236810775       -5.4988471447       -4.1925916193
 H        -5.4628084247       -6.3380722096       -3.3314869195
 H        -4.3659279229       -0.3281321524       -1.2428882333
 H        -3.9991114141       -1.9763995649       -0.7298012827
 H        -5.6242217939       -1.5850276799        0.8022814490
 H        -6.7583874636       -1.9982335084       -0.4742157321
 H        -7.9640604408        1.3552069916       -1.8393481520
 H        -7.2323579622        2.9014951789       -1.3860551457
 H        -9.0333434863        3.4496545990       -2.8767080357
 H        -9.6976637491        3.9379571362       -1.2521130522
 H       -13.7633183865        1.6391401049       -0.7422204996
 H       -14.2312303067        3.2156625114       -0.0222732303
 H       -11.5407921070        2.0814326024        0.6726509587
 H       -13.0116004301        1.2999931704        1.3042199225
 H        -8.8221378725        4.0810539750        4.0035136773
 H        -9.5010192240        5.6925326778        4.3595975178
 H        -8.3039104896        5.0476064021        1.5257487524
 H        -7.3944074067        5.6199496560        2.8710219148
 H       -10.2776098684       10.5286835705        0.4723773638
 H        -9.9910543430       10.1258537805        2.1444832056
 H       -12.2298698143       10.6937193178        2.4615231429
 H       -12.3523474224        9.0611767543        2.0896310002
 H       -14.9033311591        9.1821177313       -2.6692988625
 H       -13.9353118086        7.7830178424       -2.4947681725
 H       -13.2484272214        9.4219901814       -2.0222630319
 H       -14.7647537379        9.6466857110        2.6370013254
 H       -14.5834298429        7.9857173152        2.0479601640
 H       -16.0040331291        8.9081685934        1.7571283986
 H       -15.7248523354       11.3396457235        0.7369292444
 H       -16.2650080297       10.3829960815       -0.4245887316
 H       -14.7563365229       11.4264933669       -0.8689873237
 H        -7.8295002988        9.1661917411       -0.3188372154
 H        -6.8632292808        8.5703406629        0.9141886635
 H        -7.9888702086        9.7753100794        1.3603072012
 H        -9.6812339715        6.2174548517       -0.3974566119
 H        -7.8684738031        6.0194572498       -0.1666545840
 H        -8.5937544751        7.2329907089       -1.2324014607
 H       -13.0161203794        3.2461050588        4.8848748251
 H       -13.0443942725        4.8653359533        4.0563501403
 H       -11.7322577164        4.5187241527        5.1605462359
 H       -10.5081070558        1.6540850953        2.5349490542
 H       -11.6577715283        1.3514481468        3.9198744075
 H       -10.2112665238        2.3345351379        4.1938895620
 H       -12.3861931221        4.1751786084       -4.3126490923
 H       -10.8684351907        3.4152344539       -4.4527618610
 H       -10.9859148785        4.6546764508       -3.1880360814
 H       -13.7401846196        2.1022083871       -3.5839456141
 H       -12.9757117984        0.7701681183       -2.7224125430
 H       -12.3428629992        1.4065596171       -4.2372527315
 H        -8.5602245151       -1.5540651871        0.8132151489
 H        -9.1691102775       -0.5869393435       -0.4750267042
 H        -9.7579852203       -0.3143050022        1.1711657044
 H        -8.3021700708        0.6008675942        2.7937714293
 H        -6.9820395801        1.7520463144        2.3089399554
 H        -6.6074250816        0.1001245836        2.3926199853
 H        -2.6406053479       -3.9247970587       -3.3985308811
 H        -2.9330483393       -3.2732120465       -1.7904908757
 H        -2.4334395579       -2.2074244900       -3.1576326407
 H        -3.7225006496       -2.9950568956       -5.3587161785
 H        -4.8200561043       -1.5889879095       -4.9308702536
 H        -5.5960511824       -3.0676928255       -5.2172900806
 Na      -12.8615938977        6.0254391654        0.6152124388
