117

 C        -4.8097118225       -5.5299126212       -3.2205572510
 C        -5.4046705795       -4.1955656587       -2.7943382405
 O        -6.4324248175       -4.0349316721       -2.1796128947
 C        -4.6188286883       -2.9206778410       -3.2495944204
 C        -5.2865360263       -1.6988229190       -2.4720311223
 O        -6.2853401902       -1.1464798798       -2.9164993331
 C        -4.7692706223       -1.3660719180       -1.0814888693
 C        -6.0417893614       -1.2063255997       -0.2324153051
 C        -6.3704133931        0.2272174035       -0.0119164412
 O        -5.6621654475        1.2188704682       -0.2276203262
 C        -7.7571903432        0.5801112557        0.7121432153
 C        -8.3397339368        1.9071467212        0.1845870755
 O        -8.9092129275        2.6895281989        0.9281009159
 C        -8.0739479520        2.3753983414       -1.2914283771
 C        -9.2712417458        3.0823083808       -1.9370598039
 C       -10.5396113211        2.1338786756       -2.0487264107
 O       -10.5668208893        1.0052776339       -1.5598955968
 C       -11.8792508797        2.7014030456       -2.7116375076
 C       -12.5579310718        3.4026052071       -1.4782864362
 O       -12.4200552494        4.6197477581       -1.2395221120
 C       -13.3972477659        2.5580615258       -0.4289409382
 C       -12.4812191387        2.2651043190        0.8561578259
 C       -12.5642946600        3.4607845637        1.8426625410
 O       -13.5466931037        4.1404571022        1.8465821890
 C       -11.6020786802        3.5739413038        3.1850211457
 C       -10.7015791144        4.7630766129        2.9519446774
 O       -11.1718360186        5.6881540933        2.2985231314
 C        -9.3038810850        4.9205571494        3.5560024083
 C        -8.5165336247        5.5833615631        2.3847661236
 C        -8.8788337905        7.0603149060        2.2052595712
 O        -9.1420112886        7.7895609238        3.1346316496
 C        -8.8956218292        7.7567683652        0.7064985580
 C       -10.3183845511        8.4512076704        0.6315267810
 O       -11.2855384291        7.9112901973        0.1255087117
 C       -10.5148900813        9.7675485861        1.2745266254
 C       -12.0095749559       10.0130009778        1.7410431911
 C       -12.9325392096       10.1933116482        0.4923364737
 O       -12.5796653805       10.8925467991       -0.4621711309
 C       -14.5211833727        9.7050257769        0.4162647324
 C       -14.3999098926        8.4808652227       -0.6769958747
 O       -14.6848518766        7.3638505373       -0.2452342103
 C       -14.1610416790        8.7520798056       -2.1498736336
 C       -14.9673303781        9.0890207389        1.7326251923
 C       -15.3366311914       10.9454092037       -0.0011699351
 C        -7.6948486550        8.7331525389        0.6652854986
 C        -8.8690344989        6.7653296861       -0.4388512662
 C       -12.4280144737        3.9931289604        4.3827459079
 C       -10.9166931103        2.1568179033        3.4215220784
 C       -11.6258334930        3.8761699892       -3.7156329416
 C       -12.8292629418        1.6446805115       -3.2234834226
 C        -8.7808365204       -0.5720744650        0.6141785544
 C        -7.3405468627        0.7506457719        2.2905190336
 C        -3.1442145856       -3.0241449941       -2.8363876106
 C        -4.7201201533       -2.7925927557       -4.8108314658
 H        -4.1158836840       -5.9734834574       -2.5098747282
 H        -4.3652878711       -5.3594944391       -4.1311253354
 H        -5.4913278304       -6.3906371743       -3.2769042573
 H        -4.1724774022       -0.4305885004       -1.0570214673
 H        -4.1251921872       -2.1633428552       -0.7384234566
 H        -5.8874412609       -1.8366803268        0.7105520255
 H        -6.8365251913       -1.7420692967       -0.7755095617
 H        -7.7997265171        1.4456912578       -1.7884742309
 H        -7.1714378760        2.9421018518       -1.1623587553
 H        -8.9699138873        3.4756396316       -2.9397113161
 H        -9.7201099364        3.8867166994       -1.3787117650
 H       -13.7636135860        1.5750070977       -0.7421276309
 H       -14.2047811403        3.1393072954       -0.0674362610
 H       -11.4220661374        2.0406999990        0.6237758869
 H       -12.8584238255        1.4396561641        1.4368342225
 H        -8.8532134438        3.9083771298        3.9049455971
 H        -9.4688958103        5.4899119925        4.4788946484
 H        -8.8089614662        5.0833208403        1.3999527786
 H        -7.4658794999        5.3967563396        2.4738122675
 H       -10.1630706568       10.5471265162        0.5462482694
 H        -9.8241175118        9.8910816180        2.1399472400
 H       -11.9473073380       10.9499780622        2.2761869462
 H       -12.3276924526        9.2817531279        2.5236319509
 H       -14.9834672182        9.2198989292       -2.6411202609
 H       -14.0204934373        7.8272060812       -2.6897811403
 H       -13.2766119522        9.4156387614       -2.2674178684
 H       -15.0217298425        9.8199711974        2.5366308065
 H       -14.3700215682        8.2784377043        2.1257983200
 H       -16.0094935196        8.6728732627        1.6938836658
 H       -15.6497321903       11.4844451690        0.8157800040
 H       -16.3264930669       10.6406123607       -0.3775679898
 H       -14.6846684374       11.5568413601       -0.6594846066
 H        -7.6998623402        9.2550839149       -0.3052571938
 H        -6.6981469576        8.2746754269        0.7288572849
 H        -7.6901085293        9.4129183884        1.4608972303
 H        -9.8807641990        6.3875658678       -0.6580206138
 H        -8.0928369253        5.9914132015       -0.4216680335
 H        -8.6509448864        7.3928865422       -1.2669491695
 H       -12.8407868114        3.0561780396        4.8955417432
 H       -13.2567133506        4.6429647388        4.0711459367
 H       -11.8623740582        4.5953114767        5.1128788582
 H       -10.4479881723        1.8519239888        2.4904734763
 H       -11.5972757781        1.3815147502        3.7399939972
 H       -10.1548919027        2.2801365937        4.2769584180
 H       -12.3525932932        3.9265335907       -4.4699804660
 H       -10.7080303985        3.5739788574       -4.2630094541
 H       -11.3244406843        4.7993513210       -3.1695590880
 H       -13.8373719595        1.9224471950       -3.3173803465
 H       -12.8099771116        0.7890068415       -2.4940287511
 H       -12.5626182465        1.2071349885       -4.1747232864
 H        -8.5561473675       -1.3774227190        1.2505271599
 H        -8.9481490790       -0.9138477156       -0.3893434390
 H        -9.7212617193       -0.1823409636        1.0835218036
 H        -8.2668027559        0.8423360485        2.7996483954
 H        -6.6457224938        1.5949854678        2.4620883129
 H        -6.8036370692       -0.1128051496        2.6407480205
 H        -2.5102330337       -3.8521382071       -3.1738302355
 H        -3.0629906513       -3.0111476269       -1.7480677717
 H        -2.6369539802       -2.1384483460       -3.1696427913
 H        -3.6842276913       -2.9069640806       -5.1835197742
 H        -5.1267350586       -1.8066414191       -5.1280265401
 H        -5.4223510376       -3.5326571646       -5.2693352137
 Na      -12.8159879737        6.0701482038        0.5691673970
