117

 C        -4.9739299085       -5.5031404726       -3.1243571593
 C        -5.4673173153       -4.1076585842       -2.7538988542
 O        -6.4902330896       -4.0087200625       -2.1350061949
 C        -4.6320384953       -2.8495204885       -3.2290392988
 C        -5.3116268752       -1.7177555353       -2.5038227845
 O        -6.2944272478       -1.1684382922       -2.8894555452
 C        -4.8474578523       -1.4657340432       -1.0451371560
 C        -6.0682419190       -1.0981582678       -0.1010688329
 C        -6.3036069746        0.3333887759        0.0746373464
 O        -5.5282564744        1.1809366481       -0.2467675134
 C        -7.6929333478        0.6186929913        0.8039506809
 C        -8.2424633492        1.9820802033        0.2316167069
 O        -8.9379294827        2.6670949243        0.9681582604
 C        -8.0958919226        2.2966135606       -1.2809758730
 C        -9.2998826559        2.9545455070       -1.9097974020
 C       -10.5509209654        2.1061822689       -2.0333323023
 O       -10.6041164252        0.9870913593       -1.5876578467
 C       -11.8654092735        2.6931458115       -2.6262557239
 C       -12.5312086554        3.3961578863       -1.3715039527
 O       -12.3643200774        4.5626094178       -1.2226910713
 C       -13.2460030366        2.5247592248       -0.4159745776
 C       -12.3169398264        2.3386226440        0.8423961433
 C       -12.7287942356        3.3853479878        1.9858303468
 O       -13.6273024315        4.1931753155        1.7915155850
 C       -11.7340135491        3.5407595077        3.1375077153
 C       -10.7976446605        4.8087058774        2.8721131062
 O       -11.1343720053        5.7640283535        2.2120635651
 C        -9.3281105406        4.9064778620        3.3663018942
 C        -8.5114453454        5.5915986655        2.3086724337
 C        -9.0213713705        6.9894525463        2.0562807780
 O        -9.1987580140        7.7751704382        3.0101639197
 C        -8.9942130094        7.6985706589        0.5832796273
 C       -10.3656066751        8.4248501615        0.6598318157
 O       -11.3024839271        7.8915564128        0.1198395339
 C       -10.4903951248        9.8365781468        1.3603403430
 C       -12.0164810572       10.0379788419        1.7195503086
 C       -12.8636407601       10.2260864753        0.4747757484
 O       -12.4136681373       10.7587570967       -0.5061055215
 C       -14.4076262055        9.7801254542        0.4409283422
 C       -14.4997532412        8.6055663091       -0.6426136236
 O       -14.6223842607        7.4413169215       -0.2527282957
 C       -14.2100711860        8.8519617299       -2.0977089836
 C       -14.9262677059        9.1985071383        1.7202912136
 C       -15.2798230400       10.9211732239        0.0758127055
 C        -7.7014620004        8.5537164322        0.6869041560
 C        -8.8777173592        6.7085040395       -0.6177171943
 C       -12.5473034190        3.8347616369        4.4157496748
 C       -10.8210938769        2.2913386003        3.4437220134
 C       -11.7010233780        3.7975526913       -3.7776429456
 C       -12.7430588301        1.5829952205       -3.1896798516
 C        -8.7131637618       -0.5042491107        0.6826683684
 C        -7.3191156812        0.7670336978        2.3215755666
 C        -3.0728886011       -3.0341239180       -2.8851267901
 C        -4.8030929681       -2.8337805697       -4.7787983951
 H        -4.2229795840       -5.8381895793       -2.4595526427
 H        -4.5765095610       -5.5702420237       -4.1416488569
 H        -5.6773428570       -6.2706002710       -2.9705528685
 H        -4.1900950391       -0.5547723220       -1.0461361731
 H        -4.2475592604       -2.2655276074       -0.6897325964
 H        -5.9098919279       -1.6150502355        0.8036200685
 H        -6.9263703826       -1.5752100752       -0.5694536833
 H        -7.6358124965        1.4286339459       -1.7343899002
 H        -7.3055562275        3.0425013154       -1.1748302989
 H        -8.9843139018        3.2448299787       -2.9320990381
 H        -9.6320356834        3.8081001195       -1.4411900787
 H       -13.3019846823        1.5482207504       -0.7859925983
 H       -14.2171682555        2.8881732304       -0.0837058408
 H       -11.2684967310        2.3990928062        0.6172103800
 H       -12.5134888923        1.3273577695        1.2159836023
 H        -8.9494013043        3.9224587209        3.5627769267
 H        -9.2969583570        5.4178699363        4.3360922163
 H        -8.4181539695        5.0233417029        1.3424017713
 H        -7.4796891372        5.6609006591        2.7184473527
 H       -10.0183732083       10.6903582303        0.7882231027
 H        -9.9436075249        9.8187483362        2.3163137244
 H       -11.9988506596       10.9581990496        2.3567704190
 H       -12.3547982508        9.2431772666        2.4202007972
 H       -15.0576335062        9.3508644286       -2.6132011174
 H       -14.0920789824        7.9268170578       -2.6213276751
 H       -13.3655986981        9.4500491506       -2.2193052729
 H       -15.2519668844        9.9808592090        2.4128162110
 H       -14.3688916556        8.5526604690        2.3222234006
 H       -15.8844552545        8.6558578723        1.5054514575
 H       -15.4529966830       11.6128807493        0.8697188759
 H       -16.2867542963       10.5219715630       -0.1041387931
 H       -14.8157143092       11.4138817396       -0.7044420797
 H        -7.6657426299        9.3172034901       -0.1529171364
 H        -6.7964678309        7.9418442902        0.4673482026
 H        -7.5153415518        8.9670213983        1.6320486298
 H        -9.7558290090        6.0366463630       -0.7878720744
 H        -7.9754119536        6.1746551175       -0.5319996215
 H        -8.7856071110        7.3339195655       -1.5088277686
 H       -12.9450344464        2.9298120511        4.8816548427
 H       -13.3776928816        4.5430390928        4.1944390449
 H       -11.9115388069        4.3320844600        5.1139875821
 H       -10.0841898685        2.1437866407        2.5998305000
 H       -11.3898488057        1.3974005038        3.4555663474
 H       -10.4019653510        2.4303819794        4.4149923770
 H       -12.4920793376        3.5957891871       -4.4969421787
 H       -10.8027405668        3.4781784086       -4.3358581255
 H       -11.5146984758        4.8062583626       -3.4519193792
 H       -13.8273772359        1.6781205645       -3.2533347225
 H       -12.5701644376        0.7137189453       -2.6224420590
 H       -12.3903006068        1.2778805969       -4.1826238447
 H        -8.5490853452       -1.2983378781        1.4331546923
 H        -8.7524704424       -0.9121478000       -0.3730575913
 H        -9.6607901137       -0.1766721945        0.9891627283
 H        -8.1862048423        1.2573376422        2.7578746343
 H        -6.4129425024        1.3254424079        2.4078180952
 H        -7.1669653356       -0.1924090737        2.8103415119
 H        -2.5225852287       -3.7557602551       -3.4975896588
 H        -2.8957742999       -3.2894044089       -1.8777162622
 H        -2.5221787089       -2.1149552336       -3.0581556713
 H        -3.8525987360       -2.7524812392       -5.2266741056
 H        -5.4823132554       -2.0841920148       -5.1885173693
 H        -5.2553413276       -3.8328620554       -5.0455550524
 Na      -12.7884160515        6.1403202942        0.5066111404
