117

 C        -2.9216825812        2.3756113622        9.9489449203
 C        -3.7141546295        2.8694410856        8.7907210748
 O        -4.8586977491        3.2144466194        8.9995860553
 C        -3.1334021956        3.0442376983        7.2980918644
 C        -4.2601111715        2.3361669959        6.4146097493
 O        -4.0266011948        1.2335646159        5.9091687082
 C        -5.4922633640        3.1374881717        6.1909783029
 C        -6.5860954565        2.2821871551        5.4819719133
 C        -7.8643358226        3.0351056880        5.0689243701
 O        -8.0839720251        4.1531762267        5.4736723244
 C        -8.8728230399        2.3915749753        4.0998259786
 C        -9.8922132224        3.3728340047        3.5193537500
 O       -10.9553173768        2.8908474100        3.1138322018
 C        -9.5798806365        4.9341883046        3.3076987861
 C       -10.7212107067        5.8887355331        2.9293687551
 C       -11.3190435238        5.6345649484        1.5637723137
 O       -10.6616427862        5.1429395178        0.6787748673
 C       -12.7124975709        6.3821388142        1.2689732436
 C       -13.3332155597        5.7864958550       -0.0895456879
 O       -12.8713239457        6.1306621253       -1.1804873897
 C       -14.3527736829        4.6683413576       -0.0543534435
 C       -14.3166106127        3.6226386634       -1.2617590609
 C       -14.0960525002        2.1994732003       -0.6721753331
 O       -14.1023789813        2.1033177012        0.5672278566
 C       -13.3685992974        1.0411004467       -1.5062942255
 C       -12.5777245091        1.5053001969       -2.8603945996
 O       -11.8441489461        2.4569414446       -2.7522501948
 C       -12.8467799181        0.7832551043       -4.2168974961
 C       -11.8284908887        1.1894086572       -5.2639360453
 C       -12.3591735402        2.2776578745       -6.2155569264
 O       -13.3746326068        2.8873907704       -5.9042519427
 C       -11.4950294428        2.8889168277       -7.4853694723
 C       -10.6050686381        3.9631130210       -6.8145324011
 O        -9.6599656925        3.6097121283       -6.0937183871
 C       -11.0523277631        5.4463910373       -6.7440526751
 C       -10.0496965255        6.3454492606       -5.8912997828
 C        -9.7912709379        5.8827474439       -4.5006134196
 O       -10.7162331540        5.8312334146       -3.7169135376
 C        -8.3301463906        5.6721028056       -4.0868888723
 C        -8.2377211230        4.1658824502       -3.6828796740
 O        -8.9512275222        3.7875294616       -2.7374100802
 C        -7.2068309515        3.2322974900       -4.1988012551
 C        -7.2889942713        5.9985320941       -5.3042509344
 C        -7.7728533900        6.2107679086       -2.7919774398
 C       -10.5163702293        1.8483216711       -8.0431242857
 C       -12.4170865638        3.3024339330       -8.6720203530
 C       -12.4109978560        0.4488339335       -0.5002710415
 C       -14.3394729965       -0.0975563584       -1.7767371403
 C       -13.6725539314        6.2511338709        2.4761213032
 C       -12.1469302103        7.9103766701        0.9906693132
 C        -8.1623790582        2.0569101173        2.7815255484
 C        -9.6494644785        1.2188842367        4.7842948473
 C        -2.9746312719        4.5019280045        7.0624686637
 C        -1.7285008202        2.3167856819        7.1871627323
 H        -2.3404937825        1.5052339230        9.5620405433
 H        -3.5650472548        2.0003261750       10.8567106562
 H        -2.2444044527        3.1055977743       10.3017829952
 H        -5.2276619041        4.0638015020        5.6502202851
 H        -5.7930868863        3.4707445573        7.2602726360
 H        -6.9193420975        1.5278632933        6.1564151344
 H        -6.1722513952        1.7677390791        4.6551524594
 H        -8.8943883025        4.9324008171        2.4642510773
 H        -9.1620272927        5.2552299091        4.2731295699
 H       -10.3282218924        6.8857820545        2.9005532535
 H       -11.5417863654        5.9353259503        3.6913226468
 H       -15.2897609177        5.1836802912       -0.0131855197
 H       -14.3969028383        4.0132782674        0.8729337170
 H       -13.4855033502        3.9088841968       -1.9850357092
 H       -15.1701346844        3.6947739021       -1.8653054517
 H       -13.8626325188        1.1942697993       -4.4530847516
 H       -13.1398047616       -0.3139835984       -4.0911015600
 H       -11.4243370121        0.2513355529       -5.7542651890
 H       -10.9595284943        1.8307254530       -4.8773420437
 H       -12.0561086908        5.5020596219       -6.3543425850
 H       -11.0995727727        5.8437358964       -7.7398932714
 H       -10.5677801979        7.3189118447       -5.8625703233
 H        -9.1350702654        6.3873972991       -6.4608332227
 H        -6.8944980572        2.4264032010       -3.4355349726
 H        -6.2792034755        3.7036429716       -4.4359293061
 H        -7.5596068852        2.6226629355       -5.0894550919
 H        -7.4135641303        7.0372530929       -5.6095572977
 H        -7.4029479219        5.4600407257       -6.1974225028
 H        -6.2637324712        5.8505192594       -4.9832538351
 H        -8.4308481152        6.0473816362       -1.9428806820
 H        -7.5781840459        7.2464485591       -2.8626142888
 H        -6.8669598202        5.6981025093       -2.7527367163
 H       -10.8981968860        1.0021082652       -8.7243377489
 H        -9.9966032578        1.3430353166       -7.2299679834
 H        -9.7868027507        2.2960943592       -8.6666584291
 H       -12.5847613129        4.3995784752       -8.5347880579
 H       -13.4363338638        2.8538886169       -8.5606978940
 H       -11.9880172304        3.0371231210       -9.6280303120
 H       -12.8747057977        0.3349372414        0.5039275434
 H       -11.4581950683        1.0082460737       -0.4912381874
 H       -12.0965945831       -0.6072918066       -0.7517786939
 H       -14.9983682004       -0.5069468794       -0.9743536023
 H       -13.7668535805       -0.8946995597       -2.1925038352
 H       -15.0724854263        0.2660657984       -2.3938068733
 H       -14.7225681172        6.5474574050        2.2480341690
 H       -13.3041075859        6.8372467250        3.2066157721
 H       -13.6925136505        5.1429256746        2.7661134659
 H       -11.2501364338        7.7789693758        0.3365302243
 H       -11.8088721631        8.3807050033        1.9366177877
 H       -12.7847921617        8.6154163558        0.4739601408
 H        -7.7179908340        1.0447416585        2.9075433993
 H        -7.3842641045        2.8150618435        2.6210409032
 H        -8.8658612876        2.0811056374        1.9226873930
 H       -10.1838785579        1.5164166241        5.7379628901
 H        -9.0434523691        0.3135516788        5.0676775635
 H       -10.4390006934        0.8772611718        4.0764700292
 H        -3.9940925682        4.9021351009        6.8547168302
 H        -2.4079780020        4.6102191262        6.1148212103
 H        -2.5359038373        4.9782385613        7.9502912753
 H        -1.8360917563        1.2304458857        7.4271532311
 H        -1.0914057419        2.7901910392        7.9542965191
 H        -1.3843796701        2.2477530602        6.1525703866
 Na      -10.8635251505        4.8861545038       -1.6779037889
