117

 C        -5.0672861541       -5.5723921367       -3.0082110631
 C        -5.4868242502       -4.1565321376       -2.6785862115
 O        -6.5205408629       -3.9098209051       -2.0634852024
 C        -4.6752884592       -2.9658080080       -3.2221734557
 C        -5.3353526459       -1.7228720529       -2.4814128144
 O        -6.2693867060       -1.1176841870       -2.9965256863
 C        -4.8192308467       -1.5143994841       -0.9675928394
 C        -5.9938176972       -1.2003698201        0.0047229643
 C        -6.2563350828        0.3145812306        0.1172711216
 O        -5.4744636202        1.1859407754       -0.2218980983
 C        -7.6004367154        0.7149891831        0.9275543346
 C        -8.3069114588        2.0027574646        0.2811571665
 O        -8.9972413011        2.7305166143        0.9713810730
 C        -8.1349044677        2.1872722071       -1.2780130455
 C        -9.2684849643        2.9484762817       -1.8989459313
 C       -10.5162999694        2.0326235925       -1.9843932514
 O       -10.5880411037        0.9196458530       -1.5736806064
 C       -11.9007951523        2.6517137699       -2.6598061395
 C       -12.5182056965        3.4165367793       -1.3723375072
 O       -12.2903511751        4.5971519053       -1.1836717665
 C       -13.1006606376        2.4332642893       -0.3272770972
 C       -12.2689351235        2.3933425873        0.9492772061
 C       -12.6804554946        3.4281739540        1.9930327851
 O       -13.6410425024        4.1725329799        1.7698009044
 C       -11.7490046661        3.6113087650        3.1683246953
 C       -10.8593659083        4.8178975168        2.7104025329
 O       -11.2996686558        5.7755951121        2.0958495384
 C        -9.3546146924        4.8341544225        3.1717282023
 C        -8.4331401137        5.5412168292        2.2245318608
 C        -8.9795715631        6.9872331283        1.9876845358
 O        -9.2881664672        7.6637969391        2.9270018158
 C        -8.9961469832        7.6380779268        0.5605701376
 C       -10.3755351440        8.4654645290        0.5494432749
 O       -11.4138120840        7.9529545004        0.1050363138
 C       -10.5225779478        9.7384590066        1.3812524594
 C       -12.0024817503       10.0426026044        1.7052225619
 C       -12.7687423757       10.2582150225        0.4302038973
 O       -12.2688350039       10.6412604113       -0.5857183520
 C       -14.3322439368        9.7844069477        0.4387321729
 C       -14.3668597702        8.6393464233       -0.5604244443
 O       -14.5378802823        7.4745248782       -0.2318072956
 C       -14.2930234568        9.0651602166       -2.0270022106
 C       -14.8623700849        9.2055979061        1.8975575739
 C       -15.2375957504       11.0105371494       -0.0599147016
 C        -7.7695529141        8.4946430366        0.6172348341
 C        -8.9630968645        6.6962174911       -0.6195326814
 C       -12.7120636893        3.7514543715        4.5281831555
 C       -10.8250142414        2.4042587358        3.4405527616
 C       -11.6611145877        3.6939218487       -3.8246634724
 C       -12.6839265370        1.4682271992       -3.2043470603
 C        -8.6844098699       -0.3334276478        0.6721950617
 C        -7.2739514144        0.9227411254        2.3853027730
 C        -3.1539869140       -3.0759950141       -2.9778799801
 C        -4.8916836380       -2.7527721876       -4.7604465239
 H        -4.1886042587       -5.8748866148       -2.4394130612
 H        -4.7761805354       -5.6993512310       -4.0905644509
 H        -5.7576450208       -6.3444985614       -2.7609929126
 H        -4.1388022387       -0.6940161459       -0.8150593296
 H        -4.2634038664       -2.4401399515       -0.6997771228
 H        -5.6500133882       -1.5235115651        0.9198964260
 H        -6.7968881474       -1.8384624819       -0.2634372216
 H        -7.9322140251        1.1988820113       -1.6522752757
 H        -7.1570620394        2.7089486533       -1.2875804405
 H        -9.0016933542        3.1463136444       -2.8956382586
 H        -9.6050248865        3.9089971434       -1.4701158786
 H       -13.1723164428        1.4087828834       -0.6869423555
 H       -14.0959011505        2.8542399276       -0.0345816406
 H       -11.2604954429        2.6536126236        0.6707943841
 H       -12.2087731434        1.3933578812        1.4290454442
 H        -9.0596068636        3.8812372791        3.3936321462
 H        -9.3243508341        5.3436944960        4.1331084217
 H        -8.1859583730        5.0194235761        1.3438771838
 H        -7.4463623303        5.6934872573        2.7837320262
 H       -10.1567201648       10.6094894907        0.8439118061
 H        -9.8943213527        9.6794342353        2.2691829063
 H       -11.9291124503       10.8998943085        2.4263645002
 H       -12.4773518932        9.2397611712        2.2519985388
 H       -15.2329944400        9.5849836436       -2.2224274473
 H       -14.2729644962        8.2521731409       -2.7491990590
 H       -13.4936157329        9.7280893303       -2.2820591463
 H       -15.0039947309        9.9906348276        2.6352033797
 H       -14.2795913221        8.4637101134        2.4739948654
 H       -15.8028675203        8.7630416389        1.8006735000
 H       -15.0546976524       11.9041209146        0.6318823515
 H       -16.2325432200       10.7570328422        0.0851176155
 H       -14.9899772821       11.3511142516       -1.0421690734
 H        -7.8064611629        9.2326597814       -0.1587255937
 H        -6.8988150901        7.9168795949        0.3379437863
 H        -7.4826176785        8.9393238051        1.6815677112
 H        -9.7145758699        5.9479883409       -0.5342910594
 H        -7.9865007167        6.1860085127       -0.6593830968
 H        -9.1061865361        7.2439579309       -1.5806229987
 H       -13.2619095232        2.8875917458        4.7307041973
 H       -13.4223527174        4.5566596475        4.3874162250
 H       -12.1029324074        3.9978370685        5.3912133644
 H       -10.0864063910        2.2856862167        2.6841814805
 H       -11.4738152622        1.5388706383        3.2376499180
 H       -10.5310720950        2.3915817326        4.4386181865
 H       -12.6423589859        3.7125691505       -4.3613314854
 H       -10.9081301371        3.3788771022       -4.5325902701
 H       -11.3372261543        4.6204294883       -3.4220972573
 H       -13.8007282485        1.4890779837       -3.2905439719
 H       -12.4912199692        0.5583437966       -2.6901899730
 H       -12.3137199053        1.2299001287       -4.1995792042
 H        -8.5132282228       -1.3350760435        1.1858180874
 H        -8.8008981478       -0.4175933128       -0.4178533941
 H        -9.6104774523       -0.0768889905        1.1546184477
 H        -8.0149751808        1.6293532700        2.7906399187
 H        -6.2608951206        1.2482924320        2.4901304376
 H        -7.4182729550       -0.0355235870        2.9159760683
 H        -2.6973632246       -3.6148556400       -3.7744060163
 H        -2.8554479079       -3.5742223473       -2.0696589378
 H        -2.5881177492       -2.1447641804       -2.9998043636
 H        -4.1706342254       -2.1587849456       -5.3126704092
 H        -5.8382082868       -2.2484162526       -4.8081284550
 H        -5.0575167729       -3.6953938781       -5.2147766430
 Na      -12.8228701031        6.1891411895        0.4435356992
