117

 C        -5.5554251469       -5.5191870847       -2.6386962953
 C        -5.8161397475       -4.1118024615       -2.2720044134
 O        -6.5636078657       -3.8610428473       -1.3420811651
 C        -5.1896862906       -2.8344523796       -3.0246023530
 C        -5.3034394920       -1.5709961086       -2.1511898448
 O        -5.6674489201       -0.5044637067       -2.6011466970
 C        -4.8157747498       -1.7114975968       -0.7329163562
 C        -5.9512156487       -1.2907210723        0.2419023246
 C        -6.0897320126        0.2278158205        0.2415879050
 O        -5.2558254658        0.9679068756       -0.1709706552
 C        -7.4459403565        0.8060382787        0.9639517430
 C        -8.2045284925        1.8039077199        0.0441131445
 O        -9.0422147604        2.5688675908        0.4832007018
 C        -7.9789005512        1.5735481001       -1.5174286791
 C        -8.9126006371        2.3024469122       -2.3575467879
 C       -10.2798904060        1.7063638947       -2.1027973747
 O       -10.4071417231        0.6936423169       -1.4869282802
 C       -11.5791766278        2.3767298017       -2.6994421163
 C       -12.2896016790        3.1700826901       -1.4062208368
 O       -12.2213565879        4.3584879184       -1.2514377595
 C       -13.0843804329        2.2588037278       -0.4412640511
 C       -12.4619301817        2.2522883841        1.0517508454
 C       -12.8778312960        3.4647171818        1.9065348319
 O       -13.8517497318        4.1339734751        1.5983516742
 C       -11.9544130625        3.8081502895        3.0801284897
 C       -10.7732828392        4.7841174941        2.6735885307
 O       -11.0418536509        5.5967221685        1.7957362101
 C        -9.3284058523        4.5706425211        3.1130657999
 C        -8.3994579177        5.3495279665        2.1970924871
 C        -8.7873026268        6.8141980989        1.9529647239
 O        -8.7330290476        7.6914234096        2.8284391920
 C        -9.1509963549        7.4182617637        0.4371560242
 C       -10.4635327807        8.2496563502        0.6960243251
 O       -11.5603110089        7.8502010994        0.4348684443
 C       -10.2973716676        9.7478581234        1.0557168950
 C       -11.6356836454       10.3791902323        1.5474765583
 C       -12.6709664223       10.5266545393        0.3428189715
 O       -12.3183699321       10.9569341597       -0.7076133503
 C       -14.1985663373       10.1089892236        0.4575904359
 C       -14.4556904073        8.9982821373       -0.6375821494
 O       -14.3171315310        7.7893983757       -0.4281732524
 C       -14.9324797510        9.3915721350       -1.9896185793
 C       -14.5901715583        9.7416085854        1.8961459512
 C       -15.0956687815       11.3802570333        0.1106630519
 C        -7.8728369115        8.1952286970       -0.0160068904
 C        -9.4926257833        6.2989435052       -0.5973762126
 C       -12.8218867051        4.5997555965        4.1225823721
 C       -11.3060709751        2.5495500520        3.8394998138
 C       -11.3372852266        3.4600887940       -3.7785571183
 C       -12.5249073431        1.2985975019       -3.2109755027
 C        -8.4597045198       -0.2853991115        1.3382171844
 C        -6.9924316484        1.4905986665        2.2647232259
 C        -3.6647527250       -3.0581296301       -3.3414559219
 C        -5.9921958540       -2.6811831873       -4.3203259550
 H        -4.7863193601       -5.9608499976       -1.9865418072
 H        -5.0838323553       -5.7646964363       -3.6396555334
 H        -6.5251612301       -5.9867017508       -2.6678541667
 H        -4.0595391785       -0.9128092270       -0.5570595860
 H        -4.3246300323       -2.6465630922       -0.6206140563
 H        -5.6311465670       -1.6485871342        1.2338740789
 H        -6.8723232350       -1.8341903225       -0.0070252889
 H        -7.9364077208        0.4828623658       -1.6591391042
 H        -6.9609680658        1.8975507303       -1.6687992410
 H        -8.5449859933        2.1418936190       -3.4533609574
 H        -8.9777780789        3.3755772323       -2.2312748730
 H       -13.0628897512        1.2025713561       -0.7407839741
 H       -14.1309943614        2.7024778154       -0.3442447984
 H       -11.3481827782        2.3319256494        1.0247585590
 H       -12.7447468638        1.3492919046        1.5840343021
 H        -9.0923171189        3.4858227111        3.0842093796
 H        -9.1917347644        4.8428324152        4.1770725779
 H        -8.3047513582        4.9108974930        1.1907603454
 H        -7.4858303044        5.2824328299        2.6908394789
 H        -9.8538327784       10.2989317078        0.2415391420
 H        -9.5689230180        9.8304892826        1.8234766303
 H       -11.4564394268       11.3301104076        1.9939278837
 H       -12.0400872832        9.6839457947        2.2718669420
 H       -15.7692292152       10.1293550633       -2.0722894010
 H       -14.9671910208        8.5106267410       -2.6084551132
 H       -14.0690874835        9.8767465268       -2.3962305145
 H       -14.8535775007       10.6777064616        2.3665771882
 H       -14.0119695638        9.2141018706        2.5699392010
 H       -15.5927813069        9.2342066379        1.8438625919
 H       -14.8297352052       12.1154928207        0.8928764356
 H       -16.1770170383       11.0476782171        0.1068089201
 H       -15.0100812674       11.7339142095       -0.9007672442
 H        -8.1374646199        8.8301827568       -0.8648756966
 H        -7.0341081645        7.5589959042       -0.1992015281
 H        -7.6732990733        8.9490789795        0.7747374432
 H       -10.4367894897        5.7405427105       -0.3186386471
 H        -8.7714386631        5.5493450792       -0.8290695586
 H        -9.7184594792        6.8007482191       -1.5419682558
 H       -13.3222763076        3.8949426935        4.7648545705
 H       -13.6294110724        5.2336973402        3.7455017608
 H       -12.2456440517        5.1347973765        4.7976003039
 H       -10.4663884520        2.1701112741        3.2118393115
 H       -12.0001784111        1.8726466063        4.2271749166
 H       -10.8031091262        3.0262505052        4.6471817977
 H       -12.1522275458        3.5534296869       -4.4611060223
 H       -10.4175397579        3.1401943470       -4.2557217977
 H       -11.2292695978        4.4554768499       -3.3898251398
 H       -13.5977015540        1.4941191949       -3.3301960890
 H       -12.5658188662        0.5246340668       -2.4703552203
 H       -12.2527844547        0.7622351493       -4.1441101828
 H        -8.0477554445       -1.1217543618        1.9097586587
 H        -9.0034349665       -0.7096948331        0.4395192345
 H        -9.2911142299        0.2067341415        1.7872767361
 H        -7.8387932774        1.8211111426        2.8606563363
 H        -6.5649598312        2.4159268399        1.9095227931
 H        -6.3432217363        0.8282128690        2.8198346486
 H        -3.5062679940       -3.9178882619       -4.0069162242
 H        -3.0010040431       -3.2590887497       -2.5373717734
 H        -3.1962489521       -2.2068154351       -3.8039239027
 H        -6.9581325559       -3.0298764072       -4.3802360017
 H        -5.4989882017       -3.0632043825       -5.1948601336
 H        -6.0171387503       -1.5869470825       -4.4637062670
 Na      -12.9323032891        6.1156182968        0.3260024959
