117

 C        -2.6831107160        2.4135112416        9.8551830050
 C        -3.6763488767        2.9464069322        8.7879297997
 O        -4.8115194654        3.2578642452        8.9102169605
 C        -3.1080288438        3.1504691985        7.3099192323
 C        -4.2303364835        2.4317745352        6.3734893219
 O        -4.0036783533        1.3357006357        5.9001204964
 C        -5.5356494054        3.1258150009        6.1367551091
 C        -6.5823093094        2.3514948606        5.4255199829
 C        -7.8457690495        3.1993260534        5.1297931392
 O        -7.9834968941        4.2946867316        5.6447449826
 C        -8.8777431084        2.5415260406        4.0398812726
 C       -10.0621715136        3.4575801032        3.4839096984
 O       -11.0568604212        2.9703638851        3.0808526291
 C        -9.6037165576        4.9237756877        3.2489179505
 C       -10.7175290190        5.8700723318        2.8851223399
 C       -11.3267185525        5.6791989177        1.4553444559
 O       -10.7014439692        5.0662527198        0.6559440227
 C       -12.6815267018        6.3529834146        1.1781444589
 C       -13.2772340937        5.7615140751       -0.1788827407
 O       -12.7389167817        6.0947453309       -1.2258145178
 C       -14.4360359774        4.7364080200       -0.0767150929
 C       -14.2954310890        3.6263417486       -1.2018694574
 C       -14.0127490268        2.2403357694       -0.5663456441
 O       -14.2279632604        2.0490812658        0.5939433158
 C       -13.4146905656        1.0048955099       -1.5411925120
 C       -12.6821864008        1.5365976797       -2.7444080711
 O       -11.8687323841        2.4311132329       -2.7792403417
 C       -12.9148056437        0.8147435815       -4.1477997678
 C       -11.8307676016        1.2504011043       -5.1798699469
 C       -12.3469913275        2.4356750826       -6.0580359400
 O       -13.4406019385        2.9243388588       -5.7926979057
 C       -11.4707941458        2.8734979734       -7.3198334651
 C       -10.5649938226        3.9361858259       -6.6153760394
 O        -9.5914082843        3.5394868709       -6.0109608209
 C       -11.0008550691        5.3708923791       -6.6376344895
 C       -10.1037753290        6.4013179944       -5.9579904291
 C        -9.7568833724        5.8957567241       -4.5050339890
 O       -10.6165742580        5.7172032539       -3.6756180375
 C        -8.2376981572        5.5026510822       -4.0655528563
 C        -8.2193705573        3.9956160689       -3.6237753781
 O        -9.0270782678        3.6627029444       -2.8010520763
 C        -7.1015442145        3.1829593873       -4.1812062279
 C        -7.3379345102        5.9525289679       -5.2499746989
 C        -7.8080233901        6.2679802778       -2.7799288428
 C       -10.6042429527        1.6668960848       -7.9302163927
 C       -12.3348574595        3.3546172512       -8.5469503301
 C       -12.2038260262        0.3528190861       -0.6127617547
 C       -14.5223238916       -0.1499434705       -1.8503849441
 C       -13.6282930849        6.2705825640        2.3786644561
 C       -12.3298317375        7.8167810773        0.8354639863
 C        -8.1358360243        1.9739088314        2.7814357659
 C        -9.5606038732        1.3365036654        4.7567596406
 C        -3.0089669765        4.6857552790        7.0137703359
 C        -1.7312801823        2.4143664182        6.9837624149
 H        -2.2001763689        1.4220936011        9.5684877447
 H        -3.2724101522        2.2594792525       10.7978563004
 H        -1.8977138577        3.1567916949       10.1124309306
 H        -5.2506051049        3.9765063580        5.3669213630
 H        -5.8621617767        3.6472963004        7.0629180953
 H        -6.9637480963        1.4247203503        5.9828836324
 H        -6.1636136985        1.9839869436        4.4945507967
 H        -8.8617624705        4.8265691681        2.4151396679
 H        -9.1901909718        5.2080090077        4.2348321079
 H       -10.4359071416        6.8775765746        3.0288716670
 H       -11.5257933566        5.6685820133        3.6194929913
 H       -15.3909673990        5.2140211018       -0.0707418718
 H       -14.4013115622        4.1546481351        0.9052161953
 H       -13.4604481705        3.9438400909       -1.8613799989
 H       -15.1419411623        3.6371609119       -1.8454093836
 H       -13.9525493276        0.7764320867       -4.5295526657
 H       -12.7529924821       -0.2368863104       -3.9075160823
 H       -11.9075946651        0.3790747259       -5.8601244903
 H       -10.7771023704        1.3725778509       -4.8813027171
 H       -12.0035919951        5.4193623395       -6.2082298815
 H       -11.1181269359        5.6577340662       -7.7086282719
 H       -10.7413686762        7.3194567267       -6.0165717616
 H        -9.1705274669        6.4440003980       -6.5927416666
 H        -6.7734665193        2.3903427698       -3.4882965820
 H        -6.2117370994        3.8164497998       -4.2659775310
 H        -7.2764401757        2.6619168244       -5.1550824211
 H        -7.5287900833        7.0650698145       -5.5025418182
 H        -7.6558643182        5.4566136002       -6.1137251943
 H        -6.3242121946        5.7382178771       -5.1734947459
 H        -8.6219287178        6.1257241513       -2.1015038508
 H        -7.7770386544        7.3871814417       -2.9635986228
 H        -6.8327034665        5.9557580467       -2.4665192951
 H       -11.0822162741        0.8295692482       -8.3943889924
 H        -9.9475554268        1.2434017838       -7.1481218750
 H        -9.9687914685        2.0508089316       -8.7322837324
 H       -12.7793041546        4.3508040221       -8.2733539168
 H       -13.1458292619        2.6548413063       -8.6326999412
 H       -11.7822344181        3.3458772313       -9.5226056172
 H       -12.6236968164        0.1401707160        0.3448217687
 H       -11.2302938043        0.8880007250       -0.5775996745
 H       -11.9166821312       -0.6492129576       -0.9867799930
 H       -15.1269478097       -0.4425974098       -1.0346520368
 H       -13.9860326393       -1.0100057411       -2.2876057113
 H       -15.3131508891        0.2075415716       -2.5334586540
 H       -14.5668144232        6.8044108588        2.1634929793
 H       -13.1095843808        6.8651243057        3.1456887071
 H       -13.8744405844        5.2252533456        2.6477203820
 H       -11.5417737077        7.8662652021        0.0808325142
 H       -12.0354082365        8.3282290631        1.7237173062
 H       -13.1779561916        8.3742837543        0.4398860547
 H        -7.8957160506        0.9666179035        3.0896013623
 H        -7.2963901747        2.5534719345        2.3579094444
 H        -8.8838867653        1.8480725097        2.0439614410
 H       -10.1298533739        1.5910347593        5.6958406432
 H        -8.8641071097        0.5202312717        5.1012477896
 H       -10.3107607217        0.8655887996        4.0426876974
 H        -4.0260839300        5.1346295766        7.0748538232
 H        -2.6670009682        4.7897484181        5.9421667841
 H        -2.3724097658        5.0918394330        7.7413917021
 H        -1.7849590100        1.3642433725        7.3435705778
 H        -0.8683066737        2.9280787299        7.4508772880
 H        -1.6861940772        2.2447361447        5.9322848799
 Na      -10.9661437975        4.6471168672       -1.6287985744
