117

 C        -5.9722324057       -5.4900253081       -2.4572968647
 C        -6.0570163562       -4.0550198712       -2.0017226027
 O        -6.7486653963       -3.8155197108       -1.0091097441
 C        -5.4187424063       -2.8510620340       -2.8803589931
 C        -5.2618498195       -1.5490611465       -2.0113091293
 O        -5.6930550574       -0.4569969735       -2.4385074853
 C        -4.5562281830       -1.5944731161       -0.6621917381
 C        -5.5925411201       -1.2883506481        0.4385108736
 C        -5.8876922593        0.2029465025        0.5266156485
 O        -5.0485829945        1.0275199236        0.1957273801
 C        -7.3401761148        0.7680110274        1.0572440072
 C        -8.1722060050        1.5672995627       -0.0405801884
 O        -8.9908152348        2.3960032665        0.3385636150
 C        -7.9838409556        1.2207404715       -1.5133994278
 C        -8.9260150102        1.8601783232       -2.4569793994
 C       -10.3748304956        1.4512921468       -2.0911717308
 O       -10.5824694251        0.5095125777       -1.3552627773
 C       -11.5348035099        2.3636932713       -2.6193569353
 C       -12.2644827909        3.0461945082       -1.3318095745
 O       -12.1383354798        4.2355457530       -1.2301812795
 C       -12.9904543517        2.1304743510       -0.4156296900
 C       -12.3889612166        2.1568438980        1.0079149230
 C       -12.8297995953        3.4405946617        1.8689229939
 O       -13.7799225396        4.0581835597        1.3857429662
 C       -12.0998954519        3.9298761973        3.1904861461
 C       -10.8591733859        4.7612832221        2.6726650384
 O       -11.1243955465        5.6525701296        1.8573330090
 C        -9.3914521101        4.6325765878        3.0238373581
 C        -8.4974828076        5.3344844598        1.9598663617
 C        -8.8179901370        6.8187353791        1.7255149010
 O        -8.5421244821        7.6428424722        2.5824903175
 C        -9.1444325035        7.3910472166        0.2557235023
 C       -10.4151234994        8.2876617265        0.4297068354
 O       -11.5079754093        7.7948366133        0.3097618874
 C       -10.1651359031        9.7789764757        0.7376438857
 C       -11.4149211565       10.5206901951        1.2151793941
 C       -12.5525362375       10.5588635633        0.1583905836
 O       -12.2717284385       11.0439480020       -0.8905359017
 C       -14.0819519080       10.1395286475        0.5078624804
 C       -14.5448977421        9.0694474429       -0.5770765110
 O       -14.3803559583        7.8440709245       -0.3861205615
 C       -14.8676787986        9.5753339695       -1.9462922127
 C       -14.3583486194        9.7173810284        1.9099070715
 C       -14.9277042857       11.4185109754        0.3350880696
 C        -7.8556254020        8.2657984406       -0.0450963956
 C        -9.4686332956        6.3640299811       -0.8405042071
 C       -12.9609172862        4.8788043035        3.9309857230
 C       -11.6388700957        2.6959210510        4.0130934278
 C       -11.1326609717        3.4908204142       -3.6028607202
 C       -12.5857232977        1.4422967560       -3.3634400492
 C        -8.1606935712       -0.3158439015        1.6955149988
 C        -6.9761825778        1.9042874464        2.1321916124
 C        -4.1155636916       -3.1304200432       -3.5545612226
 C        -6.5903942236       -2.5656009640       -3.8746328240
 H        -5.6210604254       -6.2355131842       -1.7735325022
 H        -5.1909616848       -5.5589758252       -3.2758489538
 H        -6.8890319032       -5.7357391531       -2.9288892099
 H        -3.7540124995       -0.8257111320       -0.6940779747
 H        -4.0771733636       -2.5369287651       -0.5376315311
 H        -5.1611181145       -1.6339196617        1.3254695981
 H        -6.4213481525       -1.9563636101        0.3107251562
 H        -7.9168573227        0.1231213925       -1.4879042469
 H        -6.9635578524        1.5735533514       -1.7138014017
 H        -8.7326530612        1.3216293824       -3.4471022384
 H        -8.7895366172        2.8852268525       -2.6531901793
 H       -13.0087167593        1.1000770622       -0.7362175949
 H       -14.0560228182        2.5163931637       -0.3411227111
 H       -11.2944930968        2.0521521389        1.0310781255
 H       -12.7922972010        1.2879271595        1.5047479664
 H        -9.1547146798        3.6044390760        3.1879929242
 H        -9.3092158482        5.1219670808        4.0070243992
 H        -8.5255727161        4.7115268361        1.0663679819
 H        -7.4853093788        5.3746625179        2.3331215986
 H        -9.7325628513       10.1830861126       -0.1932432634
 H        -9.4245169493        9.9535514318        1.4926083682
 H       -11.0621102231       11.5589468340        1.3563971490
 H       -11.7193969446       10.1330311835        2.1932626329
 H       -15.8990219634        9.9403302947       -2.1783665228
 H       -14.5955139684        8.8233954668       -2.6588698778
 H       -14.1733755833       10.3346321230       -2.0656568174
 H       -13.8821789886       10.4310498299        2.5927004970
 H       -13.9477275802        8.7531537396        2.0798262946
 H       -15.4396161617        9.7339455489        2.1697770803
 H       -14.7917437213       12.1379297010        1.2194845651
 H       -15.9993493909       11.2426260300        0.2501229524
 H       -14.5717484589       11.8153639841       -0.5674844216
 H        -8.0330456338        8.8767835155       -0.9218153966
 H        -7.1311360294        7.5139828291       -0.2230926928
 H        -7.4309193110        8.9025065591        0.8771823047
 H       -10.2086268184        5.6362395046       -0.4870428670
 H        -8.5974067552        5.8223151261       -1.1062438904
 H        -9.8687913926        6.7178167922       -1.8067747961
 H       -13.9152733189        4.4531063189        4.1112058217
 H       -13.0955114704        5.8324352431        3.3786568152
 H       -12.5973059164        5.2144638619        4.8787678289
 H       -10.6852924391        2.3024325661        3.5668439737
 H       -12.4670468489        2.0153659418        4.0679954862
 H       -11.3872831045        3.0187394870        4.9759876554
 H       -12.0645318458        4.0877657260       -3.7318388215
 H       -10.9762372759        3.0627121047       -4.5972869794
 H       -10.3591885850        4.1354349968       -3.2485363422
 H       -13.5680216739        1.8959244161       -3.5597308774
 H       -12.8783438147        0.6204824203       -2.8140330581
 H       -12.3355052162        1.0168660341       -4.3393716071
 H        -7.6929691313       -0.6263035135        2.6804260005
 H        -8.1851940372       -1.2973086032        1.1155023275
 H        -9.1429690440        0.0521739724        1.8611189301
 H        -7.8356765098        2.5614703358        2.3349815402
 H        -6.0944432611        2.4340527412        1.8368698540
 H        -6.7182557326        1.3325039592        3.0245928678
 H        -4.2927270591       -3.8775025979       -4.3456894935
 H        -3.3994714659       -3.6135999290       -2.9323245339
 H        -3.5874472872       -2.3234429954       -4.0672537256
 H        -6.5097480520       -2.9907889610       -4.8414412442
 H        -6.7732065015       -1.4975902648       -3.9941333630
 H        -7.5144052171       -3.0758930640       -3.5463500584
 Na      -12.9455869694        6.0659737594        0.1041091755
