117

 C        -6.1957391529       -5.4544930098       -2.3138806296
 C        -6.2395117681       -4.0484752472       -1.7988088039
 O        -6.6933619547       -3.7618795242       -0.7077100966
 C        -5.7829153717       -2.8286015994       -2.7771569781
 C        -5.5137787737       -1.5065760650       -2.0253025330
 O        -5.6615125161       -0.3985073188       -2.5773078654
 C        -4.7487304934       -1.6209670539       -0.7005033527
 C        -5.4395564323       -1.1770431376        0.5548690898
 C        -5.7072737046        0.3320414195        0.5755284654
 O        -4.9386455400        1.1927783265        0.2057353428
 C        -7.1075010289        0.8016247641        1.2048751396
 C        -8.0224453004        1.4684071933        0.0981171254
 O        -8.7869934273        2.3585045252        0.3910092055
 C        -8.1781932600        0.7826227975       -1.3072793850
 C        -9.0156300577        1.6255022545       -2.1781366857
 C       -10.5032720447        1.2742724820       -2.0187465578
 O       -10.8757598233        0.2491425836       -1.5384346743
 C       -11.5250788446        2.4336261081       -2.6285825273
 C       -12.2190988820        3.0154377542       -1.3688017773
 O       -12.2178803374        4.2350878941       -1.2721868965
 C       -12.8316238216        2.0603751490       -0.3548398098
 C       -12.2122728020        2.1603887989        1.0390373427
 C       -12.8984946928        3.4709401750        1.8958505677
 O       -13.7777700551        4.1223921907        1.3273094441
 C       -12.2091608535        3.9998807568        3.1791122038
 C       -11.0989558926        5.0375106664        2.5350705468
 O       -11.5468540040        5.9304867801        1.8155426567
 C        -9.5879416718        4.9073391398        2.8444072079
 C        -8.6270015122        5.3651812052        1.7141619809
 C        -8.9275698116        6.8182142982        1.4831571391
 O        -9.0406372349        7.4810731228        2.5192523450
 C        -9.0402523242        7.5069837019        0.0462225513
 C       -10.2423779619        8.5079470690        0.1097450786
 O       -11.3247586883        8.1358928176       -0.2422310346
 C        -9.9467300781        9.8974137301        0.7158633060
 C       -11.2446713550       10.4884742367        1.2551245499
 C       -12.3851083046       10.4455749292        0.0790097086
 O       -12.0668137133       10.7992967257       -1.0059263866
 C       -13.9967079804       10.0363879603        0.5184762572
 C       -14.4373093576        9.0369017399       -0.5318946855
 O       -14.3065706271        7.8352463853       -0.2775217588
 C       -14.7122450579        9.4708040954       -1.9605211126
 C       -14.1345962650        9.3057368734        1.8877072425
 C       -14.7519009712       11.4017594249        0.4701684079
 C        -7.7209342114        8.2759352307       -0.3515100145
 C        -9.3316715376        6.3387547485       -0.9687235718
 C       -13.1828697526        4.7841286901        4.0112691022
 C       -11.5561032686        2.8710698538        4.0557422596
 C       -10.9270955458        3.5453762136       -3.5315074712
 C       -12.6096403128        1.5660541463       -3.3678529264
 C        -7.9961090000       -0.3601486959        1.8587371122
 C        -6.7928842021        1.8427848191        2.3932931542
 C        -4.4238013580       -3.2274819216       -3.4301199728
 C        -6.8111670198       -2.5355103742       -3.8367976362
 H        -6.5729779232       -6.1319005852       -1.5342048538
 H        -5.1295366499       -5.7275699143       -2.5788102550
 H        -6.8082433796       -5.5437255931       -3.1855546257
 H        -3.8259033536       -1.0167877188       -0.8032163280
 H        -4.4180159004       -2.6739427927       -0.6497178699
 H        -4.7167901475       -1.5174049592        1.3546479896
 H        -6.3121967801       -1.7862835995        0.7355046437
 H        -8.6257527137       -0.2430465591       -1.1452814378
 H        -7.1903378706        0.6702653730       -1.7364703037
 H        -8.6948306147        1.4067759991       -3.1852420905
 H        -8.9221104204        2.6588212291       -2.0213368894
 H       -12.7432270406        1.0550317456       -0.7262246900
 H       -13.8735606817        2.2502668750       -0.2032852096
 H       -11.0930858346        2.1536861184        1.0362759378
 H       -12.4672546348        1.2630183711        1.5871959995
 H        -9.4173339078        3.8366619611        3.1597366351
 H        -9.3231955724        5.5468284412        3.6434545129
 H        -8.7311041718        4.6750211040        0.7924342034
 H        -7.5986447836        5.2806224595        2.0819068957
 H        -9.5455403293       10.5713502472       -0.0828314958
 H        -9.1353426048        9.7669766270        1.4812913550
 H       -11.2401030830       11.5640185567        1.4821025053
 H       -11.5816455600        9.9728543279        2.1995433119
 H       -15.5497324245       10.2334377243       -1.9991181400
 H       -15.0651964197        8.6337588156       -2.5964066817
 H       -13.7923816247        9.9386844729       -2.3561898135
 H       -13.9502518595        9.9341061005        2.7702865349
 H       -13.5557092964        8.4205604292        1.8733679080
 H       -15.2431502148        9.0033703002        1.8569829909
 H       -14.4427396061       12.0496384128        1.2936750267
 H       -15.8344473852       11.2811540769        0.6487221441
 H       -14.4639040272       11.8971711842       -0.3938133642
 H        -7.9976708670        8.6463416573       -1.3109911752
 H        -6.8372714058        7.7254332558       -0.4565887674
 H        -7.6069450309        9.1106882592        0.4598866597
 H       -10.4169908630        6.0022605014       -0.9705290135
 H        -8.6510711976        5.5080838052       -0.9060575740
 H        -9.2915825757        6.6507041155       -1.9930279689
 H       -13.9354846991        4.1287180200        4.5114984635
 H       -13.6939824587        5.6670412636        3.5398209779
 H       -12.6630583116        5.3588512181        4.7581453834
 H       -11.2055589579        2.0641794930        3.3255293133
 H       -12.2716592329        2.3998943406        4.6961908428
 H       -10.7424481606        3.2958519081        4.6818926108
 H       -11.6044635509        3.7436971501       -4.3203251222
 H       -10.0776117447        3.1244872982       -4.1058228877
 H       -10.5665911221        4.3972531878       -2.9352555850
 H       -13.5166802047        2.0443883546       -3.7155966041
 H       -12.9867196813        0.6911612892       -2.8849018687
 H       -12.2407439318        1.1051919888       -4.3038884067
 H        -7.3662635732       -1.0736378011        2.3029685163
 H        -8.5831918468       -0.8875431263        1.0905199630
 H        -8.5826613877       -0.0098556640        2.6726404471
 H        -7.5444086853        1.7977039787        3.1785116505
 H        -6.7850413768        2.7788384247        1.8199715111
 H        -5.7704218653        1.8252636213        2.7413949455
 H        -4.4241774159       -4.1917940738       -3.9780552082
 H        -3.6491575717       -3.3125153078       -2.6670194348
 H        -4.0708902031       -2.5448094776       -4.1841835693
 H        -6.7806196650       -2.9998788219       -4.7726834659
 H        -6.9158187145       -1.4430105283       -3.9855792559
 H        -7.8035976865       -2.9157413531       -3.5039769976
 Na      -12.8805147156        6.1152482463        0.1978087280
