117

 C        -6.3126863230       -5.4377340366       -2.2236653497
 C        -6.3084236055       -3.9916136303       -1.7872153915
 O        -6.6201019717       -3.6583153089       -0.6512912995
 C        -5.8181038476       -2.8466432021       -2.7902234255
 C        -5.4338081483       -1.5312896860       -2.0533110615
 O        -5.7541365437       -0.4719712185       -2.5665498478
 C        -4.5730167270       -1.5879946932       -0.7133089218
 C        -5.3511274143       -1.1799972066        0.5660157014
 C        -5.7808570561        0.2813017615        0.6447356720
 O        -5.0013987797        1.1013604219        0.1902082775
 C        -7.1323921763        0.8323821095        1.3230512328
 C        -8.0854590118        1.4323615827        0.2652656388
 O        -8.6936218970        2.4975135204        0.4905994641
 C        -8.1625463843        0.7485728645       -1.1076766339
 C        -9.0111712489        1.5852719262       -2.1077950831
 C       -10.5348532431        1.2704824874       -2.0726202245
 O       -10.9283003310        0.1785181632       -1.6045013401
 C       -11.5572821623        2.2951295685       -2.6130829810
 C       -12.2611666874        3.0684759131       -1.2988783406
 O       -12.1905264109        4.2563812266       -1.2231926017
 C       -12.8412281007        2.0995437264       -0.2818443711
 C       -12.2652135292        2.3429262197        1.0750454744
 C       -12.8553141639        3.5102916236        1.8187897016
 O       -13.7473879838        4.0794316105        1.2541466172
 C       -12.1510277151        4.0147797427        3.0877398460
 C       -11.1473641973        5.0449582249        2.5526219805
 O       -11.5064716439        6.0623796280        1.9722235601
 C        -9.6819800470        4.8584748572        2.8518231674
 C        -8.8020146147        5.3688262950        1.6389703938
 C        -8.9351371864        6.8870982689        1.4784850906
 O        -9.2119686196        7.6213775943        2.3727307690
 C        -8.9744452416        7.4931329411        0.0097095536
 C       -10.1438387081        8.4524417073        0.0469194537
 O       -11.2526977979        8.1747700790       -0.3913573111
 C        -9.9687720175        9.8427723929        0.7027039580
 C       -11.2279111734       10.4878184583        1.1829505070
 C       -12.3515990027       10.4279973685        0.1524453847
 O       -12.0865321355       10.7440114377       -0.9816620338
 C       -13.8415493418        9.9963520275        0.5344636911
 C       -14.2224782253        8.9338627070       -0.6308223517
 O       -14.3346963972        7.7110359226       -0.3694762445
 C       -14.6960729720        9.3701711642       -1.9696819861
 C       -14.0643403959        9.3131460777        1.8874518661
 C       -14.6456938758       11.3251127829        0.6108675025
 C        -7.6585428067        8.1972723660       -0.3523616986
 C        -9.3551490768        6.4298125181       -1.0362140746
 C       -13.1388169149        4.8635339864        4.0341473874
 C       -11.4981977351        2.9049538707        3.9070743401
 C       -10.8745634478        3.4017764537       -3.3874446383
 C       -12.6237584994        1.6474576254       -3.4798983090
 C        -7.8731215438       -0.3797443769        1.9357971729
 C        -6.8453078559        1.9144047330        2.3591864231
 C        -4.5329411315       -3.3052421742       -3.4641497468
 C        -6.9193921159       -2.5919119400       -3.8748690325
 H        -7.0511905594       -6.0300397321       -1.7077316455
 H        -5.2684663329       -5.7704033038       -2.0643453411
 H        -6.5344138095       -5.5345936504       -3.2610581125
 H        -3.6353393190       -0.9811229832       -0.8279660079
 H        -4.2623167698       -2.6167486254       -0.6660553726
 H        -4.6893262841       -1.3259728099        1.3588228572
 H        -6.1232273676       -1.8988083473        0.7413322139
 H        -8.6232055292       -0.2577231946       -0.9910490908
 H        -7.0918632854        0.6137512797       -1.4260045385
 H        -8.6763539886        1.3187695596       -3.1197177668
 H        -8.9408030912        2.6093336894       -1.9900461550
 H       -12.7355049971        1.0960125719       -0.5688305036
 H       -13.9270027134        2.3093124819       -0.2752785254
 H       -11.2102476824        2.5639685845        0.9022586811
 H       -12.2122340089        1.4923374037        1.7281617669
 H        -9.4631732849        3.8711876975        3.0921993730
 H        -9.4188458277        5.5142335968        3.7002755345
 H        -9.1475189706        4.8378812239        0.7673570441
 H        -7.7311759273        5.0434663808        1.7899041155
 H        -9.5971381697       10.6024385872       -0.0570826479
 H        -9.2139569260        9.7625230316        1.4897134939
 H       -11.1338061805       11.5836546046        1.4123127088
 H       -11.6414491507       10.0327985949        2.1059852256
 H       -15.4322686456       10.2233235791       -1.9192757437
 H       -15.1832053016        8.5821755884       -2.5643830488
 H       -13.8116289316        9.7404327315       -2.4379439729
 H       -13.4793695972        9.8374226523        2.6693515595
 H       -13.8133936491        8.2355133233        1.8395750298
 H       -15.1211013535        9.4122497461        2.1317573623
 H       -14.3840210322       11.9909233479        1.4611084908
 H       -15.6409346651       11.1297954772        0.7028402262
 H       -14.3494407004       11.8970487588       -0.2345725695
 H        -7.7390754614        8.4679806734       -1.4141169963
 H        -6.7908609605        7.5289644277       -0.3060486089
 H        -7.5599318102        9.0208254540        0.3857379399
 H       -10.2657220073        5.9398857445       -0.7600783262
 H        -8.5994825276        5.6997617846       -1.2426735283
 H        -9.7145893639        6.8618747173       -2.0069230481
 H       -13.9762749767        4.2997985385        4.4263884698
 H       -13.5221050725        5.7975267741        3.5263080268
 H       -12.6035689364        5.4013244538        4.8590171231
 H       -10.9602274711        2.1924362284        3.2372655793
 H       -12.3384637852        2.2819072657        4.3203099415
 H       -10.9410841831        3.3028516663        4.7171138385
 H       -11.6987450611        3.8081121543       -4.0404120269
 H       -10.1678089486        3.0368476228       -4.1304250570
 H       -10.3920581401        4.0958507804       -2.7477068145
 H       -13.5087362930        2.2605384627       -3.6882767284
 H       -13.0435802197        0.8001251024       -3.0623369547
 H       -12.3468698619        1.2588066634       -4.4412085933
 H        -7.2738367337       -1.0669271009        2.5947900059
 H        -8.3321956379       -0.9363264362        1.1215147581
 H        -8.5897910175       -0.0285609166        2.5886662933
 H        -7.5804473194        1.9724115648        3.1866850822
 H        -6.7316550640        2.7881028471        1.7764698623
 H        -5.8178400020        1.8044987941        2.7181839731
 H        -4.6553274854       -4.1720726416       -4.1335381193
 H        -3.7439223414       -3.5444197965       -2.7693687310
 H        -4.1391157304       -2.5370408255       -4.1640019248
 H        -7.1038998548       -3.3315303826       -4.6784884668
 H        -6.7034320313       -1.6013814675       -4.3407444032
 H        -7.9538592687       -2.5049786780       -3.4550153046
 Na      -13.0194835132        6.1743410660        0.1061174919
