117

 C        -6.4148931791       -5.4003072700       -2.1663089268
 C        -6.3318839737       -3.8997563020       -1.7485303928
 O        -6.6131833361       -3.5739449715       -0.6200739605
 C        -5.8039117773       -2.8516779767       -2.7729654841
 C        -5.4450248179       -1.5550919768       -2.0281913750
 O        -5.8049125546       -0.5090430355       -2.4415075607
 C        -4.5435251442       -1.5149221625       -0.7585130766
 C        -5.3636379943       -1.2180310420        0.5299671098
 C        -5.7673128808        0.3031584733        0.5960263174
 O        -5.0657488951        1.1737235543        0.1668491679
 C        -7.1128264401        0.7939164104        1.3396703586
 C        -8.0943460956        1.4561557710        0.3425640121
 O        -8.6216867678        2.5313145547        0.5931008704
 C        -8.2370466220        0.7382441476       -0.9972267135
 C        -9.0408106412        1.5150836449       -2.0727822505
 C       -10.5449358435        1.2197973482       -2.0407936139
 O       -10.9783715518        0.1571852949       -1.6785281185
 C       -11.5926713208        2.3394575855       -2.5651299592
 C       -12.2542508883        2.9824482761       -1.3547294990
 O       -12.1784452123        4.1963151488       -1.1874245295
 C       -12.8632358052        2.1063695145       -0.2630820863
 C       -12.2152586747        2.3628937563        1.1020193583
 C       -12.8526292862        3.6063277923        1.6981385195
 O       -13.8316637527        4.2154321391        1.2969026916
 C       -12.1340771442        4.0464406549        3.0446327469
 C       -11.1195069437        5.1593045070        2.6390509113
 O       -11.4941752403        6.1377393570        2.0370479663
 C        -9.5952393015        4.8671244843        2.8739244126
 C        -8.8980003345        5.4177626269        1.6227905362
 C        -9.1117081468        6.9315036357        1.4140949065
 O        -9.1892363456        7.7110035384        2.3425916959
 C        -9.0077723343        7.4847192096       -0.0572259808
 C       -10.1756347197        8.4701371099       -0.0046742506
 O       -11.2968565429        8.1473056754       -0.4413695390
 C        -9.9356995753        9.8854908399        0.6559530227
 C       -11.1776025264       10.4695087363        1.2274759629
 C       -12.3022342990       10.3077275870        0.1347818273
 O       -12.2018510387       10.7696036359       -0.9962482010
 C       -13.7837434375        9.8499384480        0.4883944574
 C       -14.2817864192        8.9425734132       -0.6193591558
 O       -14.3690460719        7.7544637421       -0.4067796234
 C       -14.6563553557        9.4822988905       -1.9969752984
 C       -13.8903582407        9.2463826055        1.9614535130
 C       -14.5557547497       11.1724719011        0.5010638983
 C        -7.5631199738        8.0789841519       -0.3424382321
 C        -9.2910515201        6.4552589439       -1.2156903963
 C       -13.1383769551        4.8515353084        3.9744012838
 C       -11.5389368823        2.9120556645        3.8554328952
 C       -10.7752360670        3.4201573170       -3.4125438389
 C       -12.6305890631        1.6930257872       -3.4401387415
 C        -7.8329587137       -0.4508842448        2.1133922561
 C        -6.7635943414        1.9038083749        2.3769400456
 C        -4.5720514123       -3.4461430911       -3.5704161361
 C        -6.9699539468       -2.6587589497       -3.7956790309
 H        -7.4212088305       -5.7776601191       -1.9081311223
 H        -5.6086779646       -5.9085437084       -1.7530118498
 H        -6.4111004067       -5.6209384258       -3.2561738454
 H        -3.9213863341       -0.6492636055       -0.9463657784
 H        -3.8951784743       -2.3867217752       -0.8133560838
 H        -4.8132389525       -1.4355118865        1.4030045463
 H        -6.2143034137       -1.8806399524        0.5808772501
 H        -8.6826720468       -0.2335683986       -0.7825267145
 H        -7.1711642331        0.5684107083       -1.2991360837
 H        -8.6892405716        1.2533269289       -3.0689018350
 H        -8.9937501858        2.6351645268       -1.9391877365
 H       -12.9932707864        1.0355115755       -0.5133414995
 H       -13.9018490820        2.5079309803       -0.1910050649
 H       -11.1524889345        2.4796538358        1.0166830972
 H       -12.3098937549        1.6007205823        1.8939128207
 H        -9.3966293573        3.8160826719        2.8911306790
 H        -9.2078753649        5.3476804553        3.8009603827
 H        -9.1990677468        4.8014521304        0.8272441384
 H        -7.8160609947        5.2487317843        1.7206412467
 H        -9.5653213245       10.6450578347       -0.0303013616
 H        -9.1888617671        9.6872005015        1.4212237613
 H       -11.1551318991       11.5044997851        1.5934642665
 H       -11.5420026703        9.8714601161        2.0344686038
 H       -15.3186363418       10.2848136085       -2.0802804062
 H       -15.1101196990        8.6873015440       -2.5631400998
 H       -13.6831499215        9.7823574946       -2.4245896113
 H       -13.2015198445        9.8401676893        2.5488921455
 H       -13.5688566926        8.1647575891        1.9872832210
 H       -14.8542449878        9.3482577740        2.3572181047
 H       -14.3094886009       11.8225779465        1.2974393656
 H       -15.5903198301       10.8752792304        0.6202523104
 H       -14.3398439191       11.8163110445       -0.3913577749
 H        -7.4225032825        8.3754386920       -1.4123300467
 H        -6.8414349826        7.1930305521       -0.2469616269
 H        -7.3711653400        8.7341950883        0.3969504456
 H       -10.0177375540        5.7375903990       -0.9837621443
 H        -8.3984526898        5.8839337669       -1.5182807279
 H        -9.7499878373        6.9190336640       -2.0885378956
 H       -14.0158371953        4.2677693475        4.2574241697
 H       -13.4926013906        5.7215029709        3.4849097553
 H       -12.7012484166        5.3356840882        4.8710805621
 H       -10.7537117523        2.4780346551        3.3319993232
 H       -12.2516716681        2.0578809675        3.9525253594
 H       -11.2841851917        3.2718580899        4.8521610656
 H       -11.4690263114        4.1931174827       -3.7756719228
 H       -10.3930382486        2.9843862056       -4.3199184919
 H        -9.9244192325        3.8195971021       -2.8652559848
 H       -13.4599038738        2.3010684865       -3.6972697851
 H       -13.1254888827        0.7791736721       -3.0585377698
 H       -12.2743238928        1.3366637204       -4.3585793776
 H        -7.3753076541       -0.7568211889        3.0730975753
 H        -8.0080097177       -1.2677279971        1.4541640010
 H        -8.8371600050       -0.0629547451        2.4785879695
 H        -7.6442766066        2.0459339303        2.9978263053
 H        -6.3491709491        2.7851604125        1.9034840269
 H        -5.9597736371        1.5145039299        2.9945500526
 H        -4.7958664113       -4.2097788243       -4.2991947377
 H        -3.7427160493       -3.7964580660       -2.9335337128
 H        -4.1633924399       -2.6354522238       -4.1962295143
 H        -7.3635902006       -3.6352273492       -4.2391066524
 H        -6.5585695490       -2.0925878297       -4.6392462336
 H        -7.8745557301       -2.1200946164       -3.5021298827
 Na      -13.0097568355        6.1327268898        0.0615693659
