117

 C        -6.8585677058       -5.3657889190       -1.8810625787
 C        -6.5633010045       -3.9323515616       -1.4945756293
 O        -6.8586938701       -3.5261149181       -0.3691407836
 C        -6.0155150879       -2.9897405861       -2.6034535296
 C        -5.7539214274       -1.4784364801       -2.0189712369
 O        -6.3029779736       -0.4795177072       -2.5168846923
 C        -4.7130850928       -1.3867475918       -0.9348089504
 C        -5.2162486308       -1.0150607194        0.4506948196
 C        -5.7326776073        0.3607249796        0.5807421103
 O        -5.1812566960        1.2569632498       -0.0505973843
 C        -6.9218023937        0.6918097659        1.6078571183
 C        -8.1734733476        1.3468204472        0.7686635834
 O        -8.7520600030        2.3489194492        1.1496975602
 C        -8.6550908029        0.5951394146       -0.4870536053
 C        -9.2055066637        1.5662059253       -1.5578351912
 C       -10.6927844449        1.2247421214       -1.9465249945
 O       -11.1769879712        0.1583744070       -1.6930122857
 C       -11.5220833887        2.3655925940       -2.6435095523
 C       -12.0743035796        3.1631734552       -1.3344066115
 O       -11.7329045769        4.3241875068       -1.1078993266
 C       -13.1147680835        2.4977705666       -0.4412003888
 C       -12.5973048011        2.4489462812        1.0740811462
 C       -12.9130962832        3.7523765815        1.7638447939
 O       -13.6457437904        4.5700486232        1.2195465652
 C       -12.1791378514        4.2001351964        3.0540251295
 C       -11.0919878811        5.1885267609        2.6241518078
 O       -11.4690368142        6.2032844918        2.0792150931
 C        -9.6138558425        5.0058520401        2.8697742342
 C        -8.8205452199        5.3738982410        1.5957937800
 C        -8.7176357304        6.8754131351        1.2670182736
 O        -8.6092384120        7.6436027802        2.2007431075
 C        -8.8152853575        7.3508247856       -0.2591000539
 C       -10.0632918931        8.3106003200       -0.2968669650
 O       -11.1887687541        7.9648763341       -0.5332045338
 C        -9.8638699596        9.7853536118        0.0257471178
 C       -11.1591217008       10.4050395550        0.6690482708
 C       -12.4936599644       10.4752716551       -0.1489506961
 O       -12.5744787326       11.2339534013       -1.0703938852
 C       -13.7724687041        9.7064785015        0.4026809674
 C       -14.2160348542        8.8335100562       -0.7949619537
 O       -14.0518245739        7.6343341576       -0.8269679315
 C       -14.8100016613        9.6884040913       -1.9544869383
 C       -13.4295959146        8.8488287034        1.6572604678
 C       -14.8110249925       10.8252323980        0.7428780382
 C        -7.5419068711        8.0678659363       -0.6660544230
 C        -9.0131569874        6.1894736453       -1.1519513608
 C       -13.1828126789        5.0228333877        3.9128332371
 C       -11.7282604407        2.9395898585        3.8971762331
 C       -10.6104494922        3.2285936432       -3.4863091574
 C       -12.6987676287        1.7569261273       -3.3693731896
 C        -7.4010415441       -0.5656795073        2.2935427845
 C        -6.4131444758        1.7290572586        2.5980720400
 C        -4.6557375139       -3.5260961198       -3.1273158336
 C        -6.9594153630       -2.8357004279       -3.8214027956
 H        -7.5761812627       -5.3340989365       -2.6755499132
 H        -7.0335650028       -6.0534643898       -0.9887229512
 H        -6.0121134221       -5.8070588733       -2.3584770280
 H        -3.9790698398       -0.7008288646       -1.2913845843
 H        -4.2083530661       -2.3757660170       -0.8601524816
 H        -4.2562225857       -1.1014665462        0.9685749356
 H        -5.8489429955       -1.7487132279        0.8435400485
 H        -9.5127161993       -0.0274815470       -0.1638047270
 H        -7.8390536515        0.0336411240       -0.9253475226
 H        -8.7281988432        1.3563799624       -2.5349020652
 H        -9.1088024790        2.6524706170       -1.2708805155
 H       -13.2108334049        1.4082570807       -0.7228532988
 H       -14.1284805298        2.8619222462       -0.5615957132
 H       -11.5271584631        2.2338726151        1.0467314405
 H       -13.0943010573        1.6296889449        1.5962765580
 H        -9.4159492234        3.8988195445        3.0979353633
 H        -9.2229737954        5.6527114825        3.6090549058
 H        -9.3522195321        4.8704068379        0.7582995075
 H        -7.8930502940        4.9211869187        1.5968252599
 H        -9.6624488643       10.2039393677       -0.9507520682
 H        -9.0689927974       10.0072055504        0.7496350352
 H       -10.8355118224       11.4309779942        0.7497876265
 H       -11.3127452707       10.0925670475        1.7072523271
 H       -15.8887989576        9.6446588719       -1.8474220815
 H       -14.7082013518        9.1858347370       -2.8960767616
 H       -14.4514984537       10.7129411533       -2.0001728252
 H       -13.0750990665        9.5435444351        2.4160327659
 H       -12.7174672617        8.1175728089        1.4497743087
 H       -14.4025062929        8.3823733776        2.0152673688
 H       -14.4687948322       11.4502385889        1.5891690873
 H       -15.7059563654       10.2613832347        1.1047520993
 H       -15.1677000510       11.3679116147       -0.0856011329
 H        -7.7452489569        8.6121425072       -1.5924419143
 H        -6.8589001656        7.2741076136       -0.8612531862
 H        -7.1803727293        8.7979069060        0.2060157059
 H       -10.0356431960        5.7203887630       -1.0944714333
 H        -8.3357134638        5.3614427788       -1.0151748930
 H        -8.8460190644        6.5484573151       -2.1237274670
 H       -13.9182593481        4.2964340484        4.3161325731
 H       -13.8392319898        5.7792210551        3.4384659340
 H       -12.7715812805        5.4109169748        4.8099524309
 H       -10.9563624545        2.2371944363        3.4523807012
 H       -12.5709020035        2.3715978363        4.1599737641
 H       -11.2909652525        3.2841757707        4.8615992607
 H       -11.1186968537        3.9559771553       -4.0495662159
 H        -9.8525227791        2.6497161144       -4.0264415029
 H       -10.0650335947        3.8925444898       -2.7751680331
 H       -13.5217105130        2.3681760123       -3.6739124967
 H       -13.1898651082        0.9587190745       -2.8743859216
 H       -12.4108018389        1.3423043936       -4.3386358953
 H        -6.5783917916       -1.0597845001        2.7388697691
 H        -7.9317127099       -1.2471474549        1.5692616955
 H        -8.1910824423       -0.3409510773        3.0410912728
 H        -6.9146802778        2.6693359496        2.4092447451
 H        -5.3680660812        1.9349469340        2.2871666250
 H        -6.4748068562        1.4235778205        3.6369585036
 H        -4.7905824616       -4.4684142162       -3.6969027371
 H        -3.9529916219       -3.7665426468       -2.2943478729
 H        -4.1516244481       -2.7427080524       -3.6872790895
 H        -7.2981791603       -3.7907470470       -4.2075676383
 H        -6.6041600323       -2.3530594708       -4.7593229731
 H        -7.8437788322       -2.2110814175       -3.4941559102
 Na      -12.7119902315        6.2328038548        0.0328688325
