117

 C        -7.0203451264       -5.3347517156       -1.7952234543
 C        -6.6770976563       -3.8451637176       -1.5043025185
 O        -6.9557859298       -3.3845673047       -0.4316303825
 C        -5.9890241512       -2.9939044432       -2.6177347001
 C        -5.7928454702       -1.5968135816       -2.0326852146
 O        -6.6430331791       -0.7553151409       -2.2003990209
 C        -4.6086039192       -1.1910965754       -1.0537700703
 C        -5.2292267696       -0.9162775392        0.3420876683
 C        -5.7756227134        0.4473652467        0.5561475955
 O        -5.4392369432        1.3917732850       -0.1024958139
 C        -6.8612956787        0.7059954065        1.6639153485
 C        -8.1025844918        1.2473606976        0.9354261487
 O        -8.7646972123        2.1565105839        1.3928189820
 C        -8.5935840073        0.5789416255       -0.3516568676
 C        -9.3480532093        1.5474565732       -1.2814375880
 C       -10.7254987200        1.1327134963       -1.7929895584
 O       -11.2950149790        0.1225685225       -1.5190038112
 C       -11.4712718016        2.3102662232       -2.5333335622
 C       -12.0575613007        3.1981608495       -1.3589611213
 O       -11.6268560381        4.3093118154       -1.0971973803
 C       -13.0944965636        2.5219441330       -0.4901997584
 C       -12.6299049608        2.6091576833        0.9796824791
 C       -12.9900225808        3.8863955580        1.7486290741
 O       -13.8541921748        4.6267489142        1.3345561429
 C       -12.1814990273        4.2652193853        3.0902387259
 C       -10.9792170658        5.2900082368        2.6081958541
 O       -11.2841852257        6.3352960634        2.0425364206
 C        -9.5307722209        5.0055230570        2.9106969957
 C        -8.6746337868        5.3651022278        1.6702407789
 C        -8.6176805151        6.7981777476        1.2167737515
 O        -8.3354538968        7.6362868627        2.0619974493
 C        -8.7996686096        7.3087967071       -0.2896083931
 C       -10.0295732381        8.2785289235       -0.3857730772
 O       -11.1205581603        7.8184904030       -0.7542690406
 C        -9.8504960017        9.7351861132       -0.0439614722
 C       -11.0097990078       10.5787160485        0.6583980337
 C       -12.4713849044       10.6007230615       -0.1433722501
 O       -12.5904274909       11.3209683990       -1.1002792939
 C       -13.7450528114        9.7347983571        0.3078645524
 C       -14.2496213181        8.8395303485       -1.0211472174
 O       -14.0399458916        7.6319382907       -1.1181974614
 C       -15.1524038164        9.6157739941       -1.9549785869
 C       -13.3542627573        8.7906910487        1.4769440143
 C       -14.7947405192       10.6810209975        0.7840893200
 C        -7.4259614795        8.0702891610       -0.4503548268
 C        -9.0288782388        6.2914042438       -1.4213671904
 C       -13.2119476679        5.0093025807        3.9921865066
 C       -11.6454884063        3.0279052352        3.6731156267
 C       -10.6385131369        3.2711838451       -3.3632487800
 C       -12.6074463136        1.7855306167       -3.4130396570
 C        -7.4928782921       -0.5284085723        2.4596792262
 C        -6.3034779890        1.7048268810        2.6580038929
 C        -4.6454094325       -3.7102395148       -3.0739750716
 C        -7.0206568091       -2.9443431590       -3.7743503696
 H        -7.4562091187       -5.4155737880       -2.8321782626
 H        -7.6603962985       -5.6817246775       -1.0384585793
 H        -6.1457293588       -6.0615937091       -1.7622998541
 H        -4.0963259212       -0.3454748634       -1.5689010599
 H        -3.8949239192       -1.9871387364       -0.9749970664
 H        -4.4299948339       -1.1665260087        1.0915481392
 H        -6.0511557136       -1.7241127749        0.4652656251
 H        -9.2991541464       -0.1883929536       -0.0541615468
 H        -7.7714041373        0.2328437587       -1.0081895152
 H        -8.7171849290        1.7904541802       -2.1411294880
 H        -9.6339501290        2.4647736188       -0.7646615032
 H       -13.3572705578        1.5234698858       -0.7490501908
 H       -14.0565477141        3.0637498951       -0.6722268036
 H       -11.5314484139        2.5980201854        0.8448238124
 H       -12.9213090762        1.7198920762        1.5748692219
 H        -9.3755478837        3.9866378816        3.1116123453
 H        -9.2235058406        5.6754426152        3.7826549221
 H        -8.9103214016        4.6240764576        0.9315701571
 H        -7.5522586013        5.1573259463        1.8687500779
 H        -9.7469139033       10.3197758628       -0.9691407700
 H        -8.9737284422        9.7813014259        0.5759020306
 H       -10.5900937300       11.5877470395        0.6538354239
 H       -11.2809396795       10.3451314955        1.6669062868
 H       -16.0259004094       10.0039671115       -1.4725050366
 H       -15.5317598119        9.0605290401       -2.8015846311
 H       -14.5157853329       10.4788593044       -2.1952027813
 H       -13.2165467141        9.3498039194        2.3948752741
 H       -12.4227759234        8.2279385286        1.1851993848
 H       -14.1360770534        8.1279153148        1.5932404806
 H       -14.4062600493       11.0362830853        1.7064297340
 H       -15.8110191397       10.3069731985        0.9335592050
 H       -14.9396673700       11.5159001591        0.0130088213
 H        -7.3178158659        8.4468949951       -1.4452931791
 H        -6.7253603858        7.2906232629       -0.1583867460
 H        -7.3238637298        8.8840137096        0.2008570899
 H        -9.5252700350        5.4472633394       -1.0707293541
 H        -8.0420621499        5.8878897353       -1.7047511580
 H        -9.4389352414        6.6475905582       -2.3780349653
 H       -14.0950156300        4.4997563929        4.2937256219
 H       -13.5992234072        5.7920035509        3.4517682790
 H       -12.8341095421        5.3575972965        4.9480025093
 H       -10.8177496531        2.7119503735        3.1370360882
 H       -12.4569414356        2.2557781397        3.6404219159
 H       -11.2596543423        3.0287931020        4.6791060121
 H       -11.3864916939        3.9706252612       -3.7941261651
 H       -10.1565770268        2.7083926562       -4.1381695812
 H        -9.9321031782        3.9255508175       -2.9090354689
 H       -13.3325142899        2.5863937018       -3.5811255342
 H       -13.3248671785        0.9614422664       -3.1591474280
 H       -12.3158768312        1.6196519940       -4.4268083556
 H        -6.8426212282       -0.8587432932        3.3077149833
 H        -7.5854770987       -1.3516576004        1.7902879806
 H        -8.5263103933       -0.3048323205        2.7621622545
 H        -7.0258152476        2.5159422409        2.7244899116
 H        -5.4386303662        2.1928216087        2.2772986851
 H        -6.1277853118        1.2058493673        3.5999298345
 H        -4.8872690011       -4.5052036224       -3.7581171168
 H        -4.1976767398       -4.1756674927       -2.2025808219
 H        -3.8977939509       -2.9926500598       -3.4224232697
 H        -6.7144251496       -3.5489913279       -4.6446520045
 H        -7.0329685300       -1.9792943334       -4.2038292828
 H        -8.0204784788       -3.0979782706       -3.4763403026
 Na      -12.6232129057        6.0034740821       -0.0728897049
