117

 C        -7.1338312211       -5.3170273417       -1.7019961435
 C        -6.8313312778       -3.8927004574       -1.4600277271
 O        -7.1135949368       -3.3473829928       -0.4001669338
 C        -6.0175528305       -3.0188814673       -2.5720720303
 C        -5.9279538319       -1.6426247301       -1.9690982094
 O        -6.8680207516       -0.9166125874       -2.2040922858
 C        -4.7071018293       -1.1535966977       -1.1626571853
 C        -5.0898603932       -0.9008932656        0.3766874193
 C        -5.8617911494        0.4239793931        0.5968474295
 O        -5.6011982120        1.3235945706       -0.1632862938
 C        -6.9537185993        0.6478342070        1.7138559175
 C        -8.3023608038        1.2233589825        1.1572278332
 O        -8.8799700616        2.1892055639        1.6780307672
 C        -8.8446306352        0.5889052547       -0.0495703995
 C        -9.3424610828        1.6709668551       -1.0751731534
 C       -10.7073111873        1.3212293532       -1.6944675705
 O       -11.2507027271        0.2503632877       -1.4132744104
 C       -11.5031803532        2.2694053044       -2.5402843218
 C       -12.1394827073        3.2566236623       -1.3801744842
 O       -11.5937758506        4.3548598096       -1.2186380353
 C       -13.1943671565        2.6755491812       -0.4884134781
 C       -12.6866638954        2.6313270471        1.0015741504
 C       -12.9968617450        3.9550172667        1.7934691988
 O       -13.9134914561        4.6610798902        1.3923295290
 C       -12.0347313790        4.3386458947        2.9669773771
 C       -10.9896696445        5.2852001303        2.4717396405
 O       -11.2961642207        6.2295565832        1.7797317937
 C        -9.5068008423        5.1706494022        2.8858512394
 C        -8.6028675768        5.3368363168        1.6173207512
 C        -8.5627210727        6.7924255033        1.2197373927
 O        -8.4083060743        7.5871958033        2.0973897052
 C        -8.6871768632        7.3577340189       -0.3090696095
 C        -9.9455157033        8.2727405292       -0.3685449877
 O       -11.0156177966        7.8281551182       -0.6767709819
 C        -9.8559013456        9.8073198943       -0.1312922421
 C       -11.0766629414       10.3628186002        0.5656894361
 C       -12.3824847377       10.5662498688       -0.2762439500
 O       -12.5959080474       11.2833142245       -1.2337021569
 C       -13.6249099025        9.6106773059        0.2056842593
 C       -14.2825315730        8.8683162377       -0.9767611659
 O       -13.9273293211        7.7057609467       -1.2301995360
 C       -15.2555913403        9.5302708401       -2.0103510865
 C       -13.4024171542        8.5785067523        1.3394211867
 C       -14.6419989323       10.6970378583        0.7495482343
 C        -7.4413573636        8.1977077243       -0.6414776296
 C        -8.8185558688        6.2222584017       -1.3543913943
 C       -12.8643343076        5.0857340595        4.0056256004
 C       -11.5447132732        3.0717700637        3.7069416221
 C       -10.5485915347        3.1033023134       -3.3921067350
 C       -12.6169553190        1.5977991975       -3.3937732192
 C        -7.1911734219       -0.6758799020        2.4477935658
 C        -6.3410765081        1.7446688517        2.7571906092
 C        -4.7026986978       -3.7173912940       -2.8959225774
 C        -6.9058338290       -3.0392763845       -3.8894037780
 H        -7.0476933964       -5.6844723831       -2.6843103731
 H        -8.1258696129       -5.6313765308       -1.2294645560
 H        -6.4014510385       -5.8056145548       -1.1164890492
 H        -4.4359424146       -0.1903807360       -1.5927316161
 H        -3.8779814844       -1.8531886910       -1.4002595388
 H        -4.2075601610       -0.7892889289        0.9666608854
 H        -5.6281190644       -1.7060236945        0.7098423871
 H        -9.6974798896       -0.0530560558        0.2777966237
 H        -8.0838337269        0.0794311842       -0.6107827364
 H        -8.6259530724        1.7210085311       -1.9059724026
 H        -9.4880072741        2.6664348775       -0.6569222540
 H       -13.4396654835        1.6588518388       -0.8376930617
 H       -14.1548369059        3.1373588344       -0.4421990771
 H       -11.6555673456        2.3093024687        1.0420536315
 H       -13.3251001457        1.8896288344        1.4608771880
 H        -9.2226098194        4.1633710087        3.2640445762
 H        -9.3292212299        5.9223397252        3.6060085046
 H        -9.0668051059        4.6665920448        0.8368676631
 H        -7.6357226771        4.9322563386        1.7571040982
 H        -9.7542956888       10.3312717848       -1.1104311612
 H        -8.9845023794       10.0201363286        0.5401850233
 H       -10.8447576072       11.3132839589        1.1125687768
 H       -11.3660751598        9.6439701377        1.3858656268
 H       -16.0135131536       10.1406097907       -1.4253089243
 H       -15.8407153626        8.7230937056       -2.4926235106
 H       -14.7947228283       10.2370189174       -2.6941169272
 H       -13.5158289226        9.1533811531        2.2541327314
 H       -12.3971182750        8.2326536231        1.3090929595
 H       -14.0775330371        7.6646783376        1.3195875943
 H       -14.3799977429       11.0979094938        1.7574755448
 H       -15.6193318335       10.2868791152        0.8117839375
 H       -14.7693684453       11.4554402251        0.0570172549
 H        -7.6929869974        8.9312879427       -1.4424868027
 H        -6.6014036548        7.5145104501       -0.7726663341
 H        -7.2708714536        8.8552696111        0.1878588447
 H        -9.8418221014        5.7464316125       -1.3085073472
 H        -8.0722213475        5.4261255710       -1.3853549044
 H        -8.7141541923        6.6553852646       -2.3563692392
 H       -13.8008833833        4.5654295567        4.2462324719
 H       -13.3033000779        6.1055871678        3.7313889221
 H       -12.3780802916        5.1354323236        4.9804246146
 H       -10.8464924094        2.4423184384        3.0788210850
 H       -12.3191132240        2.5279287671        4.1845740526
 H       -10.7923900213        3.2941160062        4.4525947704
 H       -11.0273825523        4.0180658797       -3.7290234181
 H       -10.2593353222        2.5046237861       -4.2840251412
 H        -9.6022268663        3.3894862859       -2.8897049252
 H       -13.4243588162        2.1305289379       -3.9123068245
 H       -13.1858461568        0.9250364992       -2.8673701436
 H       -12.1555507752        0.9880054788       -4.1874491643
 H        -6.2543618103       -1.1648080437        2.6806731712
 H        -7.8219373577       -1.4216462294        1.9289290699
 H        -7.6407141646       -0.3652888447        3.3454380726
 H        -6.9777873335        1.8752766408        3.6373421126
 H        -6.3637763685        2.7279255585        2.2637876404
 H        -5.3177949390        1.4543892809        3.0390577057
 H        -4.8898312806       -4.7808677605       -3.1315353013
 H        -3.9488802591       -3.6090992767       -2.1100157702
 H        -4.3581017360       -3.1548723850       -3.7525493467
 H        -6.4606289299       -3.5334664687       -4.7108888012
 H        -7.0590606431       -2.0003001360       -4.2715423185
 H        -7.9003671429       -3.5007169208       -3.6708667349
 Na      -12.5310762221        6.2788222638       -0.2053231679
