117

 C        -7.2895320672       -5.3233929405       -1.5971152994
 C        -6.9354622727       -3.8548744832       -1.2843334535
 O        -7.2988411275       -3.3722972258       -0.2208916029
 C        -6.1350985478       -3.0801787932       -2.3562182625
 C        -6.1647570696       -1.5377854857       -2.0513186743
 O        -7.1221587699       -0.9006107958       -2.3559982960
 C        -4.9555198647       -0.8823653904       -1.3824616295
 C        -5.2934696467       -0.8276769671        0.2091776263
 C        -6.0937488652        0.4844150581        0.5351870058
 O        -6.1586626372        1.4008372584       -0.2273827135
 C        -6.8896848814        0.5752483255        1.9003581485
 C        -8.3185822531        1.1685956996        1.4996099197
 O        -8.8518710676        2.0602814308        2.1609078716
 C        -9.0535462698        0.5032546249        0.3332966123
 C        -9.4961777718        1.4755617260       -0.7977166427
 C       -10.8667040769        1.1045949485       -1.3178544530
 O       -11.3983534764        0.0374662085       -1.1145227231
 C       -11.4507928881        2.2371283348       -2.3082023744
 C       -12.2020626264        3.3248563415       -1.5262987550
 O       -11.9434495738        4.5206206365       -1.6492952679
 C       -13.3236725933        2.8256796876       -0.5621300582
 C       -12.7659070307        2.7500816515        0.9520585149
 C       -12.8422757712        4.0635448629        1.7705550725
 O       -13.6166559665        4.9161296866        1.3737245572
 C       -11.9114183403        4.3478653596        2.9519621906
 C       -10.7042523545        5.2635080285        2.2175713237
 O       -10.9665699005        6.1209947869        1.4136155843
 C        -9.2179772823        5.0972338453        2.6554495267
 C        -8.1705221925        5.5584863332        1.5725080625
 C        -8.4890457143        7.0240033737        1.0682151188
 O        -8.6385865250        7.8957595266        1.8930567702
 C        -8.5063914819        7.5386078515       -0.4261212941
 C        -9.8492071460        8.3805074512       -0.4597946109
 O       -10.8515112289        7.8252306691       -0.9083372917
 C        -9.7855919095        9.8656217351       -0.0272542819
 C       -11.1153755358       10.1468030815        0.6302508688
 C       -12.3026575836       10.0905368765       -0.3758476408
 O       -12.0733575602       10.3618778412       -1.5323937161
 C       -13.7909708174        9.6917629959        0.1645986485
 C       -14.3103293616        8.8955232773       -1.0585128912
 O       -14.1717883153        7.6436849241       -1.1265474057
 C       -15.0143462099        9.7057644611       -2.1140353651
 C       -13.7127327496        8.7962101032        1.3699581084
 C       -14.5389735436       10.9343374338        0.6019504694
 C        -7.1804525330        8.4593617349       -0.5316693846
 C        -8.6200010267        6.4969433138       -1.5756412714
 C       -12.6640573199        5.1812988256        4.0186611067
 C       -11.4354308112        3.0304791945        3.5750761277
 C       -10.3660101520        2.8362503735       -3.2545213616
 C       -12.5545062775        1.5302302336       -3.2366884859
 C        -7.1474379521       -0.7878703910        2.5742339922
 C        -6.0773364363        1.5367322931        2.8723409224
 C        -4.7186792147       -3.6766969147       -2.4586421230
 C        -6.9129144575       -3.2249716682       -3.7242343091
 H        -6.7349181409       -5.7435399889       -2.4248993163
 H        -8.2920525001       -5.5017924240       -2.0131388308
 H        -7.0839913333       -5.9588937534       -0.7490979463
 H        -5.0302482020        0.1483306730       -1.7814659541
 H        -3.9513588945       -1.2749453535       -1.6430234904
 H        -4.3553256892       -0.8699750547        0.7662871557
 H        -5.8861049854       -1.6715817530        0.4654693034
 H       -10.0331524008        0.1181651491        0.7203164466
 H        -8.4760889614       -0.3141939958       -0.0740628803
 H        -8.8274278975        1.5047316218       -1.6651791594
 H        -9.4786966717        2.4514289284       -0.4145331394
 H       -13.8188305209        1.8954683128       -0.8245492359
 H       -14.0814845110        3.5789016923       -0.5790644638
 H       -11.7489820387        2.3594435323        0.8220051289
 H       -13.3092042970        1.9844234246        1.5091413598
 H        -9.0663817613        4.0678259853        2.9439503222
 H        -9.0191074674        5.7041039201        3.5142815136
 H        -8.0919349460        4.7714454694        0.7742760462
 H        -7.2124404073        5.6346737531        2.1042621855
 H        -9.6601909774       10.5470821602       -0.9150799604
 H        -8.9375548956       10.0792042816        0.6640983576
 H       -11.1418852807       11.1784669543        1.1031366568
 H       -11.2587844657        9.4293968354        1.4937887652
 H       -16.1060587605        9.5702192056       -1.8027334958
 H       -14.8789921999        9.3060565925       -3.1296710936
 H       -14.8686032665       10.7464043759       -2.0209056389
 H       -13.4656874092        9.3816797641        2.2253579593
 H       -12.9061758623        7.9975862649        1.3217996834
 H       -14.6799119839        8.3265677540        1.5319442716
 H       -14.4694135755       11.2063656376        1.6854767778
 H       -15.5372490366       10.7138569514        0.4924094015
 H       -14.3302929215       11.8339607586        0.0303805726
 H        -6.7985205957        8.7073713844       -1.5712129717
 H        -6.3702144102        7.8237547041       -0.0567942199
 H        -7.2479649203        9.2476416962        0.0715961672
 H        -9.4226619403        5.7691234682       -1.4361448861
 H        -7.7060440947        5.9064345317       -1.6366749425
 H        -8.8773221759        7.0105292920       -2.5433334113
 H       -13.2808346957        4.5283098187        4.5777215920
 H       -13.3695563619        5.9285309880        3.6118466079
 H       -12.0540268730        5.7914325838        4.6948380084
 H       -10.8909021037        2.2833278716        2.9157396644
 H       -12.3232851040        2.4924037905        3.9387560903
 H       -10.8554091207        3.1367307419        4.4644967787
 H       -10.9843304916        3.3154617935       -4.0184289528
 H        -9.7136442920        2.2128549944       -3.8487454399
 H        -9.7979983562        3.5802003762       -2.7276855364
 H       -13.3469321830        2.2474422278       -3.6026304658
 H       -13.1636623739        0.9144941857       -2.6397034754
 H       -12.3222278918        0.8628863091       -4.0797960306
 H        -6.1964025706       -1.1812098469        2.9966828621
 H        -7.5844347879       -1.5633756803        1.9467213111
 H        -7.6701427653       -0.5394335210        3.4045272858
 H        -6.3193899746        1.4439642781        3.9321371818
 H        -6.1637031465        2.5550819150        2.5325480677
 H        -5.0239416093        1.2890485162        2.7513327721
 H        -4.8172351654       -4.4543151153       -3.2259219474
 H        -4.5043861687       -4.1114368879       -1.5218636339
 H        -4.0239322061       -2.9526952974       -2.8346083275
 H        -6.9259366756       -4.2257669196       -4.0277406169
 H        -6.5038956422       -2.5649406399       -4.4694870942
 H        -7.9522082952       -3.0272619214       -3.5492084805
 Na      -12.6986595170        6.1982225548       -0.4727270826
