117

 C        -7.6167844536       -5.1272359127       -1.2070413292
 C        -6.9971533529       -3.7209259308       -1.1337081778
 O        -7.1185869666       -3.0729969178       -0.1011742129
 C        -6.2184538314       -3.1153606489       -2.3752648072
 C        -6.3687170626       -1.4290804597       -2.1839428260
 O        -7.4483077711       -0.9210416102       -2.4272097155
 C        -5.2403255336       -0.6850137670       -1.5462101303
 C        -5.3553046472       -0.6938957369       -0.0252869200
 C        -6.2859993712        0.4485995913        0.4656442342
 O        -6.6189098972        1.4101527068       -0.1955280278
 C        -6.9486141640        0.3640635371        1.9635957301
 C        -8.3551358830        0.9546329959        1.7569005188
 O        -8.6704045990        2.0388179968        2.2468162255
 C        -9.4070836550        0.2337195944        0.8384128980
 C        -9.6237733274        1.1660559251       -0.4038709234
 C       -11.0418159599        0.9951357772       -1.0643710255
 O       -11.8873271865        0.2217382160       -0.7217791128
 C       -11.4253107702        1.9888855192       -2.2431537303
 C       -12.2542440191        3.2149363547       -1.5196121346
 O       -11.9186230825        4.3291420875       -1.7261183568
 C       -13.3275052928        2.8464773512       -0.4768642537
 C       -12.8097366743        2.8510911519        0.9331539626
 C       -12.7210318329        4.2075771431        1.5473278976
 O       -13.4422380830        5.0929729658        1.1308380505
 C       -11.6259365865        4.5371599334        2.6886476412
 C       -10.4457142715        5.2203801801        1.9327764200
 O       -10.6861252526        5.8626267346        0.9131024419
 C        -9.0275417430        5.1291667417        2.5700424930
 C        -7.9378802228        5.6517167521        1.5865098213
 C        -8.2629875555        7.1024848053        1.2113207530
 O        -8.5470205780        7.9505305849        2.0411443779
 C        -8.3495828415        7.6181056488       -0.3739885574
 C        -9.7061096505        8.3900369918       -0.4696309408
 O       -10.6476914083        7.8113732702       -1.0310435381
 C        -9.8105466921        9.8605373644        0.0863791497
 C       -11.2185822358       10.0979435311        0.6005908251
 C       -12.2972561955        9.9178837005       -0.5522617764
 O       -11.9637246618       10.2141145246       -1.6632944957
 C       -13.8625017972        9.7310377810        0.0270949243
 C       -14.5063428006        8.9427199534       -1.1013358882
 O       -14.4860451147        7.6893975185       -1.0989560542
 C       -15.0045270012        9.5552846436       -2.3355652842
 C       -14.1010861723        9.0371868029        1.4042894026
 C       -14.4443621009       11.2036615227        0.1769441815
 C        -7.1559339730        8.5996783374       -0.5173035201
 C        -8.4056664723        6.4051925972       -1.3520776023
 C       -12.2148329607        5.6419572659        3.6572552099
 C       -11.2856420078        3.2949993736        3.5362942646
 C       -10.3108833683        2.6263146957       -3.0557522469
 C       -12.2973669457        1.1654422210       -3.1583302534
 C        -6.9706880772       -1.0839463842        2.5917469053
 C        -6.0876689117        1.2267770734        2.8936354160
 C        -4.8214001800       -3.7712689191       -2.2280441376
 C        -6.9126157710       -3.4818965898       -3.6862020581
 H        -6.8598900245       -5.9529589216       -1.3368522746
 H        -8.1596735558       -5.3218383781       -2.0951823775
 H        -8.1422125304       -5.3646426921       -0.2471619537
 H        -5.2730292315        0.3983647708       -1.8202280405
 H        -4.3035030936       -1.1149173946       -1.8916847247
 H        -4.3255841146       -0.4296569334        0.4223392810
 H        -5.6350725157       -1.7050213451        0.3698577874
 H       -10.3961814688        0.0387098321        1.3442116547
 H        -9.1267301529       -0.7529303799        0.5066435174
 H        -8.7111609954        1.0353172467       -1.0035921164
 H        -9.5001799123        2.1838552685       -0.0926293038
 H       -13.6576199756        1.8383426708       -0.7149929653
 H       -14.1453260296        3.5715653264       -0.4876356998
 H       -11.8575739015        2.2732639035        0.9958228022
 H       -13.5171667265        2.2203700630        1.4981219056
 H        -8.8379394482        4.1190041386        2.7964367447
 H        -8.9667762336        5.6686742534        3.5398699108
 H        -7.7358515121        4.9440387522        0.7691267952
 H        -7.0381621646        5.7482711789        2.2819120726
 H        -9.4535923383       10.5630468298       -0.6703269815
 H        -9.1402187387       10.0829456158        0.9045278852
 H       -11.3394141780       11.1008269227        1.0078930867
 H       -11.3477214626        9.4614330313        1.4733635374
 H       -16.0901144134        9.5484444733       -2.1554530104
 H       -14.7038378864        8.9852561134       -3.1854320920
 H       -14.7368181157       10.5606509376       -2.4559893718
 H       -13.5123380897        9.5425145555        2.1224093511
 H       -13.7967605611        7.9637561063        1.4465785933
 H       -15.1000510383        9.1172010352        1.7218531125
 H       -13.8314740418       11.9019436280        0.7882525237
 H       -15.3800075131       11.1815802469        0.6987403871
 H       -14.6143963090       11.8038166834       -0.7826431291
 H        -7.3289447252        9.2651945675       -1.3303737256
 H        -6.2419465442        8.1712811063       -0.8563872181
 H        -7.0310348546        9.1873538310        0.4026701754
 H        -9.2321722774        5.7982770937       -1.1489163306
 H        -7.5482745043        5.7750403313       -1.3745378770
 H        -8.5813030980        6.8722449994       -2.3560832197
 H       -13.1159402336        5.3905080148        4.1043304310
 H       -12.2863119135        6.5691254584        3.1474532647
 H       -11.4839507919        5.9268732196        4.4192489927
 H       -10.8501673171        2.4825303855        2.9741691722
 H       -12.2320448822        2.7996164819        3.8550313372
 H       -10.7884289766        3.5687995736        4.4111019898
 H       -10.7301092500        2.9951861093       -4.0283556313
 H        -9.6849770721        1.7921752638       -3.3705341316
 H        -9.7048230561        3.4058595684       -2.6613475199
 H       -12.7382144858        1.6722744589       -4.0579248182
 H       -13.0990497081        0.6256810611       -2.6809337169
 H       -11.7393397273        0.3329781870       -3.5920389979
 H        -5.9430874270       -1.3577808440        3.0364405177
 H        -7.2786080570       -1.7858200553        1.8150034937
 H        -7.6761596029       -1.1115440440        3.3814660557
 H        -6.7103846058        1.9061311303        3.4961028591
 H        -5.4355415154        1.7870002684        2.2692271752
 H        -5.4410302991        0.7234066819        3.6134927242
 H        -4.9266848814       -4.8135133754       -2.5843077981
 H        -4.6063121685       -3.7003821384       -1.1908109210
 H        -4.1475714948       -3.1902247537       -2.8623031356
 H        -7.3223747855       -4.4958124065       -3.7804883217
 H        -6.2155260903       -3.2083224025       -4.4762340224
 H        -7.6898508706       -2.7292367929       -3.7718295148
 Na      -12.6021167465        6.4234789928       -0.5558971971
