117

 C        -7.8912880599       -4.9993918580       -1.0667636729
 C        -7.1419861628       -3.6973440368       -1.0099032100
 O        -7.2564987492       -3.0167988814        0.0069288286
 C        -6.3200166572       -3.1267729748       -2.2250322717
 C        -6.5411665028       -1.4909509185       -2.1333579438
 O        -7.5134111403       -0.9439824368       -2.5711356156
 C        -5.3529562320       -0.6284052895       -1.6662482497
 C        -5.2607540449       -0.5321097232       -0.1686754049
 C        -6.3553033719        0.4393144234        0.4222263662
 O        -6.7071189105        1.3343660055       -0.3288587337
 C        -6.9019707392        0.1913338076        1.8863636894
 C        -8.3878866961        0.9042613352        1.8307411643
 O        -8.6614342465        1.8390973067        2.5583978959
 C        -9.4512224509        0.1853367796        0.9478503918
 C        -9.5921607716        0.8144022794       -0.4478165708
 C       -11.0558433713        0.8927250721       -0.7830082414
 O       -11.8858273740        0.3031966492       -0.1765903117
 C       -11.4383175271        1.9196544547       -1.9560548134
 C       -12.1850888409        3.0870003364       -1.3228020887
 O       -11.8134203421        4.2097866714       -1.6294695827
 C       -13.4053110496        2.8297341079       -0.4022704912
 C       -12.9637086143        2.9249072771        1.0242747419
 C       -12.7449333982        4.3619017595        1.4732236498
 O       -13.4642729468        5.2440026458        0.9781892979
 C       -11.6524184581        4.7525340719        2.5867863054
 C       -10.3428670650        5.1173624240        1.8513749939
 O       -10.4008173173        5.4795260556        0.7125131614
 C        -8.9892855471        5.0506200935        2.5339678158
 C        -7.9902302965        5.6954010755        1.5613426783
 C        -8.1907029274        7.2243616679        1.2621060179
 O        -8.1390042491        8.0512055639        2.1511930178
 C        -8.2310497011        7.6535517271       -0.3047317465
 C        -9.6415046030        8.2725326301       -0.4505812334
 O       -10.5852279784        7.6428429996       -0.9351497661
 C        -9.9427811195        9.7176325783       -0.0430940694
 C       -11.3880648457        9.9878713312        0.5141951112
 C       -12.4437729494       10.1416376748       -0.5814959234
 O       -12.0800905866       10.5499638109       -1.6505363605
 C       -13.9087857724        9.8720306466       -0.2066932635
 C       -14.5192679876        8.8784145299       -1.2330115626
 O       -14.1103553244        7.7210779443       -1.2010094398
 C       -15.3100660991        9.4483341931       -2.4335695002
 C       -14.0655692790        9.2671522342        1.2525342912
 C       -14.6445990339       11.2275252322       -0.2380055511
 C        -7.1154574512        8.6605949257       -0.6033944797
 C        -8.0510982498        6.4847461204       -1.2797976572
 C       -12.0919141399        6.0178351087        3.3505240057
 C       -11.3122258901        3.5619497815        3.5638568936
 C       -10.2042232154        2.4573830220       -2.7559267528
 C       -12.4386822536        1.3193189636       -3.0116379387
 C        -7.1441206469       -1.2407349402        2.3991097742
 C        -6.0322606494        1.0156481375        2.8337061633
 C        -4.8678457932       -3.4780211465       -2.0930018880
 C        -6.9971145279       -3.6315080097       -3.5553193313
 H        -7.3361272993       -5.8468706732       -1.4114137269
 H        -8.7768072021       -4.9909538249       -1.7263923108
 H        -8.2500753822       -5.2424379884       -0.0706308557
 H        -5.2459565152        0.3776761514       -2.0184696383
 H        -4.4761609402       -1.1901002658       -2.0168900238
 H        -4.2921447420       -0.0450685663        0.0987078011
 H        -5.1934307153       -1.5098820528        0.2801778945
 H       -10.4307751708        0.3350522439        1.3751623371
 H        -9.3874540096       -0.8986257682        0.9958577960
 H        -9.0038844125        0.2398670489       -1.1728271806
 H        -8.9508671252        1.7636929828       -0.4089744007
 H       -13.7150747250        1.7553961725       -0.5557444516
 H       -14.1856923429        3.5569468693       -0.6130232036
 H       -12.2335875501        2.1630786295        1.2033223438
 H       -13.8431412255        2.5719892572        1.5938740505
 H        -8.7294185465        3.9711423935        2.8169042560
 H        -9.0021235612        5.5832139612        3.5019174196
 H        -8.0356082219        5.0880653364        0.6456049575
 H        -7.0360794501        5.5704000084        2.0116577969
 H        -9.6893419067       10.4648154127       -0.7731839478
 H        -9.2414699786        9.9873537153        0.7622718401
 H       -11.4241335906       10.9351809089        1.0299409128
 H       -11.6264941289        9.2474924330        1.2727357816
 H       -15.9326857681       10.3694866755       -2.2196961056
 H       -15.8114827191        8.6705710167       -3.0340090300
 H       -14.4963467329        9.7309952689       -3.0720930428
 H       -14.0001308613        9.8992581471        2.1062033238
 H       -13.5245416998        8.2924714008        1.4440155247
 H       -15.1336128917        8.9611669952        1.2290127194
 H       -14.3234485678       11.9238945824        0.5900335797
 H       -15.6766025490       11.1936591581       -0.1516299900
 H       -14.5138656850       11.7365109783       -1.2092121552
 H        -7.0293169104        8.9311878832       -1.6989193596
 H        -6.0994531193        8.2582063940       -0.3568160561
 H        -7.2453308258        9.5733263511       -0.0751752858
 H        -8.7964398975        5.7096728404       -1.0589159467
 H        -7.1024018879        6.0237000047       -0.9820537276
 H        -7.9042747036        6.7341185110       -2.3549139422
 H       -12.8061079804        5.7282672688        4.1211560263
 H       -12.5353736249        6.8396477900        2.7032405685
 H       -11.2748238041        6.5126603012        3.9392203855
 H       -10.8192442714        2.6667528824        3.0739192508
 H       -12.2041111280        3.1230300549        3.9750347399
 H       -10.7435770700        3.9883072301        4.3719038413
 H       -10.5153168146        3.2636870828       -3.3864513310
 H        -9.6325769086        1.6495792336       -3.2248234289
 H        -9.4979778747        3.0280296932       -2.1416800501
 H       -12.6012685456        2.0008280903       -3.8738974563
 H       -13.3373757710        1.1850962018       -2.5181749216
 H       -12.2590437197        0.3376707883       -3.4963535351
 H        -6.2180551886       -1.8102898730        2.0902537478
 H        -8.0605613838       -1.7136237736        2.0116966527
 H        -7.2569662302       -1.2313195787        3.4332075953
 H        -6.2620469989        0.8210551156        3.8799204991
 H        -6.1500726209        2.0901550493        2.6391250225
 H        -4.9619025434        0.7811502099        2.7433142825
 H        -4.9171003294       -4.5678320614       -2.0447022969
 H        -4.5221296917       -3.0564732969       -1.1623855336
 H        -4.3274789048       -3.0603063183       -2.9197070666
 H        -6.6478691796       -4.6011928281       -3.8218513343
 H        -6.8683415028       -2.9523223214       -4.4195600333
 H        -8.0765849147       -3.5788958481       -3.3203944665
 Na      -12.2785718439        6.2814569142       -0.7815788610
