117

 C        -7.8887218516       -4.9089862575       -1.0894987541
 C        -7.2658401046       -3.5931774952       -0.9376759036
 O        -7.2643966052       -3.0361446295        0.1413213286
 C        -6.4979624361       -3.0311783454       -2.1810578810
 C        -6.5977218166       -1.4505896837       -2.2102093577
 O        -7.6526925649       -0.9611644588       -2.5491511447
 C        -5.4312984185       -0.6239474526       -1.8080915377
 C        -5.3893748786       -0.5648257192       -0.2185989441
 C        -6.4088435340        0.3671420503        0.4092607731
 O        -6.8066555609        1.3478481001       -0.1786385409
 C        -6.9380886543        0.1661444099        1.8527430380
 C        -8.4574032565        0.7338386529        1.9539685821
 O        -8.6966820382        1.7143368896        2.6373611778
 C        -9.5534621691        0.0437107329        1.1660433699
 C        -9.6511111136        0.6366191953       -0.2699911231
 C       -11.0519369757        0.8667100839       -0.7330918491
 O       -12.0595354888        0.3706508401       -0.1672976034
 C       -11.4238804021        1.8423677265       -1.8829475990
 C       -12.1555980674        3.0800991052       -1.2844565043
 O       -11.8422815389        4.2309864012       -1.6752217523
 C       -13.3611606763        2.8732349798       -0.3404553909
 C       -13.0377285990        3.0485511953        1.2404881854
 C       -12.7359808358        4.4721695024        1.6163990056
 O       -13.4240959748        5.3593654187        1.1546939661
 C       -11.6153198611        4.8501738858        2.5834532316
 C       -10.3902767430        5.1809597739        1.6503387289
 O       -10.4543646272        5.2787932056        0.4167576094
 C        -9.0701497683        5.2795230332        2.4189621900
 C        -7.7900488621        5.6951317858        1.6213366443
 C        -7.9908566248        7.2090970037        1.2247901630
 O        -8.2059094621        8.0338295733        2.0777318045
 C        -8.0767921742        7.6652010835       -0.2921498185
 C        -9.5325372804        8.3039943986       -0.4828223537
 O       -10.3687696958        7.6708869463       -1.0674305282
 C        -9.8397531427        9.6680526532        0.1055275197
 C       -11.3156877397        9.9386930151        0.4551583432
 C       -12.4086274393       10.2676674390       -0.5304075242
 O       -12.1150639396       10.7582314431       -1.5981901667
 C       -13.9413931957        9.9872278452       -0.2599758642
 C       -14.4164674789        8.8194508156       -1.3826208788
 O       -13.9295157018        7.7176270487       -1.4444202158
 C       -15.4161599146        9.1542507031       -2.5168850286
 C       -14.3106303051        9.2725353137        1.0190878486
 C       -14.6051035110       11.2933917593       -0.4370359836
 C        -7.0507818784        8.8108107789       -0.5560173286
 C        -7.9098755447        6.5118612671       -1.3821938890
 C       -12.0135969763        6.2205222413        3.3268501019
 C       -11.4385612298        3.6949398606        3.6499359491
 C       -10.1815334024        2.2768104918       -2.7886554797
 C       -12.3716961387        1.0056269538       -2.8126302310
 C        -6.8465619602       -1.3388709478        2.3411008953
 C        -5.9537542762        1.0789223703        2.7066600497
 C        -4.9800462518       -3.6851195334       -1.9292223075
 C        -7.0028694539       -3.6165921812       -3.6004623321
 H        -7.3409055917       -5.5975788181       -1.7643152784
 H        -8.9581326224       -4.8116421091       -1.4339128227
 H        -8.0333458487       -5.4684290363       -0.1630450125
 H        -5.5353881196        0.4215855473       -2.1546363885
 H        -4.4244902948       -0.9124908352       -2.1310319670
 H        -4.3555792924       -0.3719533211        0.1394499476
 H        -5.6495811237       -1.5876578327        0.2178414821
 H       -10.5695100965        0.1017251654        1.6221620987
 H        -9.3625618895       -1.0503830057        1.1533443886
 H        -8.9408742246        0.1497430467       -0.9482147701
 H        -9.1364194666        1.5469331101       -0.1902689068
 H       -13.7011360172        1.8847758053       -0.5466207970
 H       -14.0984172638        3.6515260962       -0.6147094614
 H       -12.1715107289        2.3813242261        1.5064428578
 H       -13.8714879127        2.5898422569        1.7891123693
 H        -8.9916047847        4.3435545951        2.9127997861
 H        -9.1953616144        5.9837523170        3.2460154000
 H        -7.5961299927        4.9800177417        0.7943771737
 H        -6.9152648253        5.6028422477        2.3341366983
 H        -9.5893290277       10.4569420984       -0.6177557563
 H        -9.2048661369        9.9602005424        0.9132374302
 H       -11.3267315371       10.7929484154        1.1412242650
 H       -11.6861806787        9.0778518159        0.9973108725
 H       -16.1079710404        9.8667041389       -2.2208874065
 H       -15.9391771758        8.2695862695       -2.8043104463
 H       -14.8717064591        9.4524563323       -3.4339928986
 H       -13.7154677372        9.6316192319        1.8898440621
 H       -14.0548937348        8.2694696803        0.9456216732
 H       -15.3437797883        9.3263959115        1.3224102707
 H       -14.5277093413       12.0041397810        0.3695701155
 H       -15.7565671976       11.1633270382       -0.5760163338
 H       -14.3991257841       11.7686424396       -1.3668216111
 H        -7.0636602927        9.2405178985       -1.5520060629
 H        -6.0690782089        8.4631895480       -0.2931289982
 H        -7.1830272769        9.6702785815        0.0740089546
 H        -8.7195813498        5.7977322380       -1.2065587486
 H        -6.9341686511        6.0300699358       -1.4206708654
 H        -7.9813938579        6.9438501787       -2.3211500375
 H       -12.9205785976        6.1796906537        3.9410054657
 H       -12.0845449667        7.0462102141        2.6552021573
 H       -11.2771544006        6.4382813765        4.0640158521
 H       -10.9834598909        2.8095781638        3.2773397984
 H       -12.4386040020        3.4271411330        4.0237625126
 H       -10.7958519048        4.0888186415        4.4697742561
 H       -10.5159773439        2.9955690978       -3.5142671710
 H        -9.5879209588        1.4574344887       -3.1255153350
 H        -9.5005498528        2.8777562754       -2.1987316071
 H       -13.0695877430        1.6430386340       -3.3501240622
 H       -12.9719473995        0.2041406385       -2.2579873364
 H       -11.8630432111        0.5207044579       -3.6390950609
 H        -5.8571767486       -1.6213525350        2.2824482938
 H        -7.5297680793       -2.0349370761        1.8557926931
 H        -7.2494408480       -1.3687893575        3.4222666142
 H        -5.8193431384        0.6668344553        3.7103091561
 H        -6.1617254620        2.1447050779        2.8658895227
 H        -4.9632881857        0.9688299681        2.2601383464
 H        -5.1597679050       -4.6769172553       -1.5753500255
 H        -4.4899106860       -3.0614893469       -1.1603462633
 H        -4.4287784253       -3.5784252072       -2.8721389454
 H        -7.1358645529       -4.7199081153       -3.4946129668
 H        -6.1626139326       -3.5631214388       -4.2978595213
 H        -7.8497733433       -3.0829972556       -4.0299575930
 Na      -12.2394678302        6.3251033729       -0.7266945401
