117

 C        -8.0224567676       -4.9895031965       -1.0649034782
 C        -7.2866331682       -3.6867519107       -1.0013784634
 O        -7.2779752300       -3.0114288103        0.0213126206
 C        -6.4366765177       -3.0840942255       -2.2008644704
 C        -6.6422451763       -1.4521753491       -2.2041851366
 O        -7.7366076765       -1.0682322295       -2.5647049378
 C        -5.5288170788       -0.6254609245       -1.7619894131
 C        -5.4824899713       -0.6531424677       -0.2290327233
 C        -6.5345061248        0.3819100859        0.4087118976
 O        -6.8533452316        1.3896386623       -0.1610050163
 C        -6.8778514157        0.1693764469        1.9247358253
 C        -8.3758229801        0.6119150543        2.0392947334
 O        -8.6775237651        1.6232518564        2.6371665358
 C        -9.5121321544       -0.0120808590        1.2000874980
 C        -9.7348064701        0.6553210082       -0.1917421145
 C       -11.1436870824        0.8725217047       -0.5501604230
 O       -12.0518480370        0.2909505380       -0.0546026065
 C       -11.4471747433        1.7613855944       -1.8851329173
 C       -12.2071782002        3.0230067661       -1.3162604740
 O       -11.8629049722        4.1685938585       -1.7256293103
 C       -13.3541123371        2.8785980318       -0.3464395221
 C       -12.9532445273        3.1182622482        1.1262920243
 C       -12.7494172805        4.5748195645        1.5881712070
 O       -13.5041787156        5.4895218829        1.2249551818
 C       -11.5668445636        4.9294243212        2.5402221198
 C       -10.2878488799        5.1038214417        1.7244444711
 O       -10.3708822080        5.1847603100        0.5355229920
 C        -8.9727448903        5.2633867429        2.4730201579
 C        -7.8304998911        5.8146801592        1.5838345840
 C        -8.0524535914        7.2535183536        1.1444288330
 O        -8.1794858769        8.0543917655        2.0500170609
 C        -8.0535632591        7.7329546762       -0.3688356644
 C        -9.5265841647        8.3643971016       -0.5291008854
 O       -10.3493312666        7.7277432946       -1.1900463862
 C        -9.8743111588        9.6866500530        0.1343998310
 C       -11.4034879804        9.7464292186        0.6156503175
 C       -12.3841619355       10.1475180806       -0.6521141987
 O       -11.9955355165       10.8645373210       -1.5364156315
 C       -13.9886680786        9.8766365484       -0.4437848053
 C       -14.3680682569        8.8698318629       -1.4867344750
 O       -13.7194268213        7.8430473094       -1.4759110834
 C       -15.4776864129        9.0888974930       -2.5781518557
 C       -14.2482445959        9.2045014191        0.9813203383
 C       -14.6598666921       11.2675755607       -0.6549519912
 C        -6.9040211800        8.7339119485       -0.5024801682
 C        -7.7710036319        6.6592742316       -1.3954669455
 C       -11.9738266197        6.2608598290        3.2566695862
 C       -11.4260524889        3.8455182802        3.6714960213
 C       -10.1848990071        2.1891286306       -2.7086142001
 C       -12.3985920295        0.9345143068       -2.7453061970
 C        -6.6915506249       -1.2600950867        2.4767755919
 C        -5.9803458178        1.1278379566        2.6765743508
 C        -5.0787046778       -3.6676075079       -1.8887806598
 C        -6.9904867554       -3.4805555058       -3.5590040099
 H        -7.4380207296       -5.6987445780       -1.6012528028
 H        -9.0921363609       -4.9285453410       -1.4982262911
 H        -8.2512514368       -5.4611431192       -0.1245079233
 H        -5.5764650657        0.3957630651       -2.1023373849
 H        -4.4841506850       -0.9238003748       -2.0199853474
 H        -4.5140103399       -0.2823928420        0.0486288869
 H        -5.5197510914       -1.6621777901        0.1578293300
 H       -10.4328735524        0.1490921567        1.7489973299
 H        -9.5325880296       -1.1204566843        1.0283914699
 H        -9.2452908679        0.1001431530       -0.9347625913
 H        -9.0692890480        1.5453908045       -0.2037752407
 H       -13.7400506196        1.8599021785       -0.5043603537
 H       -14.0784999786        3.6312714641       -0.5188590422
 H       -12.2234634635        2.4397695171        1.5230091101
 H       -13.8888988107        2.7476093710        1.5932342988
 H        -8.7267696349        4.3129923557        3.0031427026
 H        -9.1460437010        5.9189532695        3.2496923800
 H        -7.7005375003        5.1079887114        0.7145212601
 H        -6.9295187557        5.7707176418        2.1181652029
 H        -9.6816395133       10.5408851241       -0.5566496263
 H        -9.1345811174        9.9299157463        0.9479745945
 H       -11.5646223457       10.5450292088        1.3966045671
 H       -11.6485751855        8.7269594799        1.0246230471
 H       -16.3754566540        9.6415712017       -2.2418245895
 H       -15.8412940783        8.1092462482       -2.8829011981
 H       -15.0644533257        9.4919605894       -3.4756360649
 H       -13.5952551615        9.6968737077        1.6518951839
 H       -14.0542595668        8.1662112591        1.1119535822
 H       -15.2683958292        9.3702030947        1.3772625832
 H       -14.1987923499       11.9658284136        0.0910426288
 H       -15.6849275744       11.3765384247       -0.4503848151
 H       -14.6073544548       11.6913984749       -1.6089782878
 H        -7.0189083647        9.5477631315       -1.2764049285
 H        -5.9343320555        8.2087067248       -0.5609273555
 H        -6.7577939879        9.2924118454        0.3346669356
 H        -8.4041940925        5.7498841408       -1.2392393180
 H        -6.7295935878        6.4683257099       -1.5960353685
 H        -8.0806241335        7.0994609980       -2.3122804655
 H       -12.9358737506        6.1141779878        3.6982665079
 H       -12.0438213508        7.1502451628        2.6219136265
 H       -11.3746311403        6.3918788127        4.1029783867
 H       -10.8847904203        2.9381386779        3.2733571744
 H       -12.3513725211        3.6089602531        4.1175441802
 H       -10.7004297629        4.2667212664        4.3993039120
 H       -10.4788212460        2.6920041128       -3.5793739283
 H        -9.5218163697        1.3331982533       -2.8727632655
 H        -9.5498851367        2.9119305479       -2.1299211309
 H       -13.1972755735        1.5258388518       -3.2685713880
 H       -12.8484681732        0.1760754990       -2.1756799112
 H       -11.8696309220        0.4320805046       -3.6151000383
 H        -5.6537258177       -1.5206152344        2.5395279426
 H        -7.2775705078       -1.9983584115        1.9061639066
 H        -7.1814183410       -1.2807582488        3.4196406263
 H        -5.9809589741        1.0185285267        3.7284000392
 H        -6.3743559752        2.1566242709        2.5454064296
 H        -4.9561797733        1.0861821540        2.3219344983
 H        -5.2370751062       -4.7348863655       -1.8552575246
 H        -4.7505987141       -3.2789672148       -0.9072831214
 H        -4.4130698968       -3.3348044519       -2.6661686217
 H        -7.4318564595       -4.4263653641       -3.5827092115
 H        -6.2554353389       -3.4604366069       -4.3542791522
 H        -7.7542998227       -2.6954249523       -3.7372690408
 Na      -12.3661894145        6.3783635393       -0.6946532818
