117

 C        -2.2414234312        2.6375442093        9.5075155070
 C        -3.3344398661        3.1773288359        8.5271489852
 O        -4.3913728804        3.3889312464        9.0227441344
 C        -3.0169141766        3.4123236050        7.0713940082
 C        -4.2869932260        2.7592498418        6.2402828498
 O        -4.0265582749        1.6485342706        5.7668334343
 C        -5.5355305307        3.5238153330        6.0755092364
 C        -6.4885540587        2.6643632782        5.2260924369
 C        -7.8168182952        3.3006418674        4.9868703826
 O        -8.2352920214        4.3429908649        5.4685158664
 C        -8.7897853806        2.6073285709        3.9658680233
 C        -9.8351670651        3.6940135923        3.5501140331
 O       -10.9556754616        3.3059618422        3.4641496074
 C        -9.5181241586        5.1257180024        3.0956452784
 C       -10.8264947868        5.9826301705        2.7391323707
 C       -11.3794869827        5.6474926490        1.3098291433
 O       -10.8322731769        5.0052867433        0.4943399135
 C       -12.7993259517        6.3888173349        0.8579681237
 C       -13.2819219303        5.5578798268       -0.3949765145
 O       -12.6100411403        5.4733774841       -1.4085630981
 C       -14.4935892061        4.6666600339       -0.2118705268
 C       -14.5471737879        3.3753672836       -1.1443870316
 C       -14.0152371791        2.1990686280       -0.4166645259
 O       -14.3063125785        1.9688823148        0.7323827953
 C       -13.3507514768        1.0698113379       -1.3606215714
 C       -12.7949193787        1.5902133038       -2.8362536289
 O       -12.0989328538        2.5480957462       -2.9381012115
 C       -13.0654026544        0.6455224936       -4.0093680745
 C       -12.1014632858        0.9957280511       -5.0639887899
 C       -12.4566233292        2.3889219659       -5.8017004187
 O       -13.4561071039        3.0190745764       -5.4544751888
 C       -11.4651008667        2.8318855023       -7.0036220072
 C       -10.5479470439        3.9412250437       -6.5027026826
 O        -9.5146646755        3.5351226779       -5.9909195200
 C       -11.0222696548        5.3372407844       -6.3395124921
 C        -9.9482914363        6.1665899656       -5.6777304618
 C        -9.6655005898        5.5860647822       -4.3311969352
 O       -10.5734753182        5.5042486001       -3.5530792442
 C        -8.2332273671        5.3976312017       -3.9073372729
 C        -8.1729173286        3.8492612064       -3.4784374292
 O        -9.0093640879        3.2886848004       -2.7939053001
 C        -7.0073579243        2.9808061984       -3.9501215533
 C        -7.1625132785        5.6804030884       -5.0217767922
 C        -8.0403093573        6.4051791122       -2.7586084294
 C       -10.6180710374        1.6673219019       -7.5180312746
 C       -12.3138047078        3.2485042614       -8.2149264504
 C       -12.3524130007        0.1538303972       -0.6508163364
 C       -14.7161918983        0.2130610555       -1.6985439902
 C       -13.7423378153        6.2297703203        2.0157914681
 C       -12.4420779534        7.8147093156        0.4608260415
 C        -8.2202704025        1.9273400461        2.7053724359
 C        -9.6604133653        1.5872076981        4.8301459410
 C        -3.1488431975        4.9069635982        6.8350666178
 C        -1.6160569842        2.8827325378        6.6282531829
 H        -2.2812830631        1.5919907254        9.2922398506
 H        -2.3202438789        2.8907462063       10.5738639375
 H        -1.2564568865        2.9318061402        9.3260050968
 H        -5.2770867327        4.4352642955        5.5673041075
 H        -5.9590695480        3.6756527472        7.0720306214
 H        -6.5586694312        1.7345330732        5.7037238226
 H        -6.1508221129        2.4697620198        4.2614402622
 H        -9.0111827969        4.9737806383        2.1751631038
 H        -8.9624144102        5.6229139183        3.8739900992
 H       -10.6289803594        7.0450951002        2.7412619747
 H       -11.6658025684        5.8153407222        3.4906221128
 H       -15.3616414105        5.2128556182       -0.4970002473
 H       -14.5682894680        4.2736487347        0.8607623207
 H       -14.0055819628        3.6942668765       -2.1039632445
 H       -15.5895585755        3.2845985922       -1.3112036085
 H       -14.1216051529        0.9631733744       -4.2329804559
 H       -13.0801363752       -0.3911459001       -3.5659767162
 H       -12.0986258932        0.2462217382       -5.8962941137
 H       -11.0566161630        0.9735488407       -4.6668323884
 H       -11.8569452294        5.2076574316       -5.6830208773
 H       -11.3462040555        5.7280538498       -7.2880724281
 H       -10.3054555674        7.1281991937       -5.4359852696
 H        -9.1485428681        6.1258951592       -6.3769155401
 H        -7.0620988837        1.8770992091       -3.7921559650
 H        -6.1769339974        3.2976382558       -3.3902730775
 H        -6.6717770161        3.2231503461       -4.9782862828
 H        -7.2059089300        6.7754655553       -5.4141622757
 H        -7.3417299322        5.0159534292       -5.8035066362
 H        -6.1434494777        5.4425449018       -4.7297212503
 H        -8.7485293290        6.1585092699       -1.9622047965
 H        -8.2247045534        7.4439867124       -3.0575588101
 H        -7.0246887211        6.3580762977       -2.5395874571
 H       -11.3077359522        0.8330428477       -7.8405414133
 H        -9.9290430804        1.2120927143       -6.8026804944
 H       -10.0442549359        1.9510976797       -8.3614524743
 H       -13.2953338661        3.6610948690       -7.9399892760
 H       -12.3047166229        2.4031369657       -8.8285463371
 H       -11.8040990520        3.9550316271       -8.8331915400
 H       -12.9237642395       -0.3878802365        0.0788255361
 H       -11.4556444082        0.5677632024       -0.1802543929
 H       -11.8847379166       -0.5230892659       -1.3879708474
 H       -15.0696393945       -0.2971125664       -0.7662511690
 H       -14.5301509463       -0.5531995960       -2.4566260104
 H       -15.5929762873        0.7060553777       -2.0785930343
 H       -14.7678023499        6.3925473432        1.6980926008
 H       -13.4621873024        7.0377996361        2.6064683840
 H       -13.6860563901        5.2392933465        2.4767135106
 H       -12.0108968559        7.8613939317       -0.5732727698
 H       -11.7789028412        8.3066488945        1.1797810539
 H       -13.3079413982        8.4641658534        0.4193606214
 H        -7.5152256448        1.1332127590        3.0153307060
 H        -7.8155349852        2.6402464706        1.9623050973
 H        -9.0179188607        1.3833795660        2.2100494203
 H       -10.0936833760        2.0938048115        5.6618683091
 H        -9.1390300259        0.8327699452        5.3355546853
 H       -10.4408780117        1.2625455400        4.1939485956
 H        -4.0602121961        5.3133697700        7.2979914710
 H        -3.2152101714        4.9351718595        5.7273392334
 H        -2.3144463132        5.4555763799        7.1432675111
 H        -1.7260813770        1.7729712382        6.6692274024
 H        -0.7943450033        3.2069184769        7.3033244258
 H        -1.3141960053        3.2384925478        5.6606892070
 Na      -10.7624211584        4.0635261241       -1.7510195196
