117

 C        -8.1982622241       -5.0491023130       -1.2385030260
 C        -7.4485300687       -3.7142089059       -1.0543500705
 O        -7.5444369244       -3.0746082553       -0.0297604769
 C        -6.6272014222       -3.1086929789       -2.3019353739
 C        -6.7951594286       -1.5713387194       -2.2029556840
 O        -7.8561584396       -1.0583124606       -2.4897239829
 C        -5.6417726135       -0.7079424733       -1.6786231579
 C        -5.4293739894       -0.6343602547       -0.1339417803
 C        -6.4229321399        0.3549110539        0.4883595029
 O        -6.9050564883        1.2745576948       -0.1750000798
 C        -6.8533870491        0.3514366488        1.9970693856
 C        -8.3962933093        0.6468349612        2.1441630670
 O        -8.8068856512        1.5896442645        2.8185261668
 C        -9.3321359211       -0.1367696016        1.2809891797
 C        -9.7065765821        0.6720392751       -0.0752090872
 C       -11.1896441417        0.7831091704       -0.4373802871
 O       -12.0889774038        0.2260845839        0.2692823553
 C       -11.5257895027        1.6788731157       -1.7159225942
 C       -12.2672532149        2.9975032493       -1.3400444870
 O       -11.8907355648        4.0604439450       -1.7323198365
 C       -13.4354120200        3.0382648808       -0.2958650501
 C       -12.8416708281        3.2022451553        1.1527218247
 C       -12.6822784344        4.6508263406        1.5530961410
 O       -13.4732395759        5.4857389645        1.1695204164
 C       -11.5554446095        5.0486449327        2.5723317902
 C       -10.2543869048        5.1502357264        1.7979908658
 O       -10.3101802936        5.2375149138        0.5493983227
 C        -8.8562987170        5.2458978929        2.4251815795
 C        -7.8491882182        5.8377448650        1.3897337695
 C        -8.0439823443        7.3285242989        1.1028903357
 O        -8.2606424673        8.0908748862        2.0072184200
 C        -8.0101926753        7.8555933230       -0.3947631269
 C        -9.4737814493        8.3434587894       -0.6155737832
 O       -10.2404419735        7.6725592391       -1.2790672822
 C        -9.9365765044        9.5757861596        0.2162521757
 C       -11.4389276618        9.4396264204        0.4913501885
 C       -12.2725739498       10.1960845157       -0.5834377143
 O       -11.7687973905       10.9091614887       -1.4378327753
 C       -13.8937711663        9.8605590187       -0.5635519570
 C       -14.2252154388        8.7556052929       -1.7238175590
 O       -13.5551925851        7.7504945944       -1.8681142096
 C       -15.4223644283        9.0875920049       -2.5208399447
 C       -14.4133222635        9.3723811811        0.7770513569
 C       -14.6257144585       11.1755654246       -0.8397032174
 C        -6.9941684240        8.9935438872       -0.3749533031
 C        -7.8150706686        6.7432603251       -1.4634763973
 C       -11.8450302143        6.4779542376        3.2224941663
 C       -11.4264852439        3.9475213779        3.6761709607
 C       -10.2323465743        2.0495579008       -2.4902083436
 C       -12.5448794495        0.9238598347       -2.6205728237
 C        -6.5744621795       -1.0913632717        2.6350342539
 C        -6.0230387684        1.4256867756        2.7942232711
 C        -5.0444942404       -3.5546049392       -2.0855212976
 C        -7.0613063326       -3.7264362773       -3.6438707312
 H        -7.6040189413       -5.9332158593       -1.4922845992
 H        -9.0117263275       -4.8871827235       -1.8660510320
 H        -8.7984911561       -5.3279214331       -0.3881741557
 H        -5.8462588692        0.3042652860       -2.0528840557
 H        -4.6653105181       -0.8879016676       -2.0483301815
 H        -4.4655625822       -0.1994009416        0.1858162879
 H        -5.4474142441       -1.6468814735        0.2875984148
 H       -10.3001295959       -0.3062934212        1.7634315710
 H        -8.9856529768       -1.0775830623        0.9267885736
 H        -9.0083329000        0.3558192208       -0.9329110905
 H        -9.3224674615        1.6605349342        0.1199935799
 H       -14.0318098282        2.1402550362       -0.4142802804
 H       -14.0296383664        3.9442515905       -0.6102158508
 H       -11.8348827067        2.7297047364        1.1238548511
 H       -13.3775991698        2.6015603573        1.8659515489
 H        -8.5612254085        4.2388599843        2.7018086973
 H        -8.8981378329        5.8133160428        3.4445697390
 H        -7.7739463745        5.1703638499        0.5852104641
 H        -6.8324120492        5.7643507453        1.8658685459
 H        -9.8035108448       10.4163119645       -0.4997611488
 H        -9.3781332969        9.9314275524        1.0624342411
 H       -11.7036562348        9.7497567067        1.4986093039
 H       -11.6682572608        8.3794471650        0.3838024162
 H       -16.1992170004        9.2312534277       -1.7838690640
 H       -15.8019446330        8.3641677296       -3.2587390914
 H       -15.2103286428       10.0651551986       -3.0590472447
 H       -14.3579067738       10.1287869417        1.6137339936
 H       -13.7746151618        8.5497811290        1.1343127269
 H       -15.3907817887        8.9318490811        0.7196489169
 H       -14.2290163733       11.9259693700       -0.2395976472
 H       -15.7481728596       11.2260120092       -0.6336765498
 H       -14.5532687197       11.5731699252       -1.8531575101
 H        -7.2980505840        9.6564631722       -1.1665749272
 H        -5.9609405131        8.6648975719       -0.4917163619
 H        -6.8962160795        9.7147619131        0.4868189928
 H        -8.7468307515        6.1822092604       -1.5327683373
 H        -6.8809909354        6.1547964015       -1.2765044320
 H        -7.6459649118        7.1718504698       -2.4752222336
 H       -12.8360615674        6.5255659094        3.7596656464
 H       -11.9839562278        7.1783881155        2.4031687071
 H       -11.0476941574        6.7745989517        3.9685193055
 H       -11.1267669264        3.0098028355        3.2820909953
 H       -12.4404617125        3.9749034013        4.1852810948
 H       -10.6484430426        4.1752320965        4.3928030297
 H       -10.5950121199        2.5229699697       -3.4630641572
 H        -9.7682657322        1.0985786150       -2.7979229131
 H        -9.4703610237        2.6151193969       -1.9744276160
 H       -12.7691888207        1.4989630800       -3.4991448219
 H       -13.5423874950        0.5811266413       -2.1488782967
 H       -12.0546735878        0.0367178169       -2.9806060734
 H        -5.5297598960       -1.3636661960        2.5720205559
 H        -7.1402738657       -1.8187506398        2.0794352059
 H        -6.9149106167       -1.1359194020        3.7225900870
 H        -6.5914134749        1.7429741925        3.6833110040
 H        -6.0059563754        2.3471761930        2.2623637198
 H        -5.0069236670        1.1692021967        3.0614307163
 H        -4.9775926739       -4.5323868416       -2.5447220881
 H        -4.7553941768       -3.5778091957       -1.0554365219
 H        -4.4342206377       -2.8669686621       -2.6828718076
 H        -6.7804954006       -4.8096511151       -3.6344449855
 H        -6.4050587064       -3.2635921797       -4.3567689382
 H        -8.0742357198       -3.6189331336       -3.9367004415
 Na      -12.1245306480        6.2030221970       -0.6754947825
