117

 C        -8.2336311686       -5.0144664722       -1.3588047248
 C        -7.5054446063       -3.7495775574       -1.1240859823
 O        -7.6189833612       -3.1131661664       -0.0864438990
 C        -6.5972701870       -3.1898118882       -2.2574648762
 C        -6.8422707787       -1.5108981628       -2.1481290689
 O        -7.9279850235       -1.0899503160       -2.4776809087
 C        -5.6942157874       -0.6874401053       -1.6906859455
 C        -5.5171894553       -0.6933741930       -0.1487959490
 C        -6.4071400402        0.4189650031        0.5339282249
 O        -6.8982917205        1.2485551477       -0.1756276487
 C        -6.8326970041        0.4316112356        2.0655199896
 C        -8.3925444279        0.6968643123        2.1210905408
 O        -8.8843554039        1.5275575655        2.8653408255
 C        -9.3128769829       -0.1063744825        1.2373666492
 C        -9.7614551237        0.6975050625       -0.0010535620
 C       -11.2045120435        0.8415283205       -0.3150552263
 O       -12.0852945145        0.2730151556        0.2941557691
 C       -11.5536155158        1.6331797823       -1.6317601348
 C       -12.2509357185        3.0093480915       -1.1904829797
 O       -11.8387163726        4.0529767908       -1.7597862742
 C       -13.3550261535        3.0540034988       -0.1729160580
 C       -12.7298200002        3.1736823752        1.2359345313
 C       -12.6294842194        4.6637845335        1.6300157617
 O       -13.3652517470        5.5143825806        1.1414494650
 C       -11.5237848261        5.0770902605        2.5594748471
 C       -10.2477271751        5.2253733990        1.6604943791
 O       -10.3753123663        5.3319274816        0.4598464462
 C        -8.8751912589        5.2565680051        2.3625860466
 C        -7.7559761188        5.7703607873        1.4064887208
 C        -8.0194388314        7.2590475051        1.1312146712
 O        -8.3066329461        8.0076679233        2.0488635872
 C        -8.0111739209        7.8293105075       -0.3473493834
 C        -9.4964486747        8.2955665030       -0.5820279934
 O       -10.2543511056        7.6304805410       -1.2690652232
 C        -9.9746635667        9.5063326530        0.1938937894
 C       -11.4837728342        9.4500926595        0.4464215863
 C       -12.3419601340       10.0641809450       -0.6444501037
 O       -11.8258632518       10.9222237951       -1.3388401850
 C       -13.8305304229        9.8336696531       -0.6652541927
 C       -14.1617067985        8.7974688085       -1.7320818158
 O       -13.5052484613        7.8013682912       -1.8764626148
 C       -15.4517735046        9.0588402462       -2.5992139649
 C       -14.4475093422        9.2976241916        0.6880559389
 C       -14.4652192771       11.2217092756       -0.9775923388
 C        -7.1462930025        9.0905550340       -0.5002096424
 C        -7.5998378417        6.8322235913       -1.4469751299
 C       -11.7859543736        6.4643136461        3.2060558157
 C       -11.4723657038        4.0320986098        3.7493494076
 C       -10.3392730463        1.9931754486       -2.4991388039
 C       -12.5824748644        0.8620304375       -2.4598519112
 C        -6.5661597264       -0.9836417900        2.7125712738
 C        -6.0368344807        1.5148183884        2.8320257961
 C        -5.1226372200       -3.5767095385       -2.1144221741
 C        -7.1143769872       -3.7405567320       -3.5752064235
 H        -7.4833618762       -5.7645700775       -1.4815242560
 H        -9.0276111432       -4.9986194324       -2.1623059076
 H        -8.8982499461       -5.3413523486       -0.5979606943
 H        -5.6918161377        0.3472067593       -2.0292525730
 H        -4.7518741758       -1.0738501179       -2.0988273154
 H        -4.5111042226       -0.3508368915        0.2065478353
 H        -5.6621846200       -1.7461397226        0.3045915607
 H       -10.2557726309       -0.3434677779        1.7587659036
 H        -8.9228321224       -1.0241208334        0.7722291073
 H        -9.2469449091        0.2977651540       -0.9111407181
 H        -9.2469530084        1.6339382271        0.1091303447
 H       -13.8606827487        2.0904883743       -0.3146263931
 H       -14.0425332324        3.9086489310       -0.3964956050
 H       -11.8239578845        2.5254136689        1.3434855567
 H       -13.4776612166        2.7210078724        1.9227645599
 H        -8.7058100115        4.2524862330        2.7807194423
 H        -8.9826326382        5.8871198098        3.2475020728
 H        -7.6735826492        5.0857069155        0.4971704117
 H        -6.7620419131        5.6516162576        1.8889373900
 H        -9.7314458473       10.3903122662       -0.3839235339
 H        -9.4774507235        9.7022844615        1.1131053648
 H       -11.6556896269       10.0302272302        1.3299445055
 H       -11.7394946441        8.4487080262        0.6451769486
 H       -16.3514088779        8.9390966572       -2.0360832996
 H       -15.4793661366        8.2523448992       -3.3190814874
 H       -15.4400174987       10.0084400644       -3.1591481490
 H       -14.5729170151       10.0843795461        1.4711569724
 H       -13.8287386843        8.5688753331        1.1434308786
 H       -15.3997227810        8.7531038320        0.5205843005
 H       -14.4060857187       12.0199971530       -0.1626190670
 H       -15.5623135693       11.0828151826       -1.1727148253
 H       -14.1125901651       11.7348106372       -1.8679503242
 H        -7.3214657211        9.5677930354       -1.4944490058
 H        -6.0807054479        8.8614569151       -0.3393661693
 H        -7.2756509572        9.8519013700        0.1331086285
 H        -8.4913439529        6.2457659882       -1.7904516443
 H        -6.7359600359        6.2434902104       -1.1292271265
 H        -7.2921813085        7.3532785243       -2.2940303240
 H       -12.6953210151        6.4487306097        3.8817708113
 H       -12.0749724842        7.2021656242        2.4259826801
 H       -10.9272472133        6.7475331093        3.7980304622
 H       -11.2067185372        3.0442406972        3.4331738148
 H       -12.4294645250        4.1622645409        4.1648725701
 H       -10.7222880737        4.2611909539        4.5472396572
 H       -10.6214813283        2.6466456190       -3.3024450347
 H        -9.8983236590        1.1047230337       -2.9834576036
 H        -9.5616018094        2.4028804602       -1.8271936287
 H       -12.5328658263        1.2944222628       -3.4620408539
 H       -13.6349351916        0.8664913888       -2.1867055170
 H       -12.2495716069       -0.2047211900       -2.5549393209
 H        -5.5509581005       -1.2863659402        2.6912974568
 H        -7.1494989767       -1.7272808595        2.0904106730
 H        -6.9344570060       -1.0171346694        3.7875070226
 H        -6.6114939231        1.9230863905        3.6500070801
 H        -5.8577144010        2.4242080659        2.2184304417
 H        -5.0678836130        1.1730937535        3.1841277085
 H        -5.0150722982       -4.6385882557       -2.2327197890
 H        -4.7188818060       -3.2202544338       -1.1397082694
 H        -4.6435466179       -3.1013350011       -2.9769535169
 H        -6.8655616640       -4.8102541112       -3.6817533406
 H        -6.6570029235       -3.1828123311       -4.4059453659
 H        -8.2189188565       -3.6594604039       -3.6341229815
 Na      -11.9321910604        6.1460464504       -0.8114584512
