117

 C        -8.3152430797       -5.1750128651       -1.3732319135
 C        -7.6895450624       -3.8041226909       -1.1353944355
 O        -7.7190811430       -3.2688478322       -0.0432198767
 C        -6.8072654440       -3.0925490253       -2.2529182727
 C        -6.9883499691       -1.5254809811       -2.1160525736
 O        -8.0319323264       -0.9990646054       -2.4531770920
 C        -5.8465098431       -0.7164262973       -1.5797339642
 C        -5.9262692075       -0.8334406419       -0.0568736498
 C        -6.5092495887        0.5191626367        0.6001051896
 O        -6.7251538233        1.5379023204       -0.0327969286
 C        -6.8944310136        0.4838382896        2.1049501004
 C        -8.5099531332        0.7674460183        2.2404286402
 O        -8.9584088218        1.6338175328        2.9638521335
 C        -9.3837233116       -0.0833507041        1.3583711041
 C        -9.5484227599        0.6533658792       -0.0627254732
 C       -11.0768560075        0.7987906319       -0.3314555620
 O       -11.9055042562        0.4707619425        0.5447863177
 C       -11.6870469315        1.5442239715       -1.5519995959
 C       -12.2915637997        2.8889424413       -1.0760816493
 O       -11.8210721663        3.9069657812       -1.5759065879
 C       -13.3942676401        2.9454391692        0.0177167772
 C       -12.8332878699        3.2710739715        1.4347162217
 C       -12.4002924201        4.7831006210        1.6121537618
 O       -12.9513221954        5.6378398933        0.9537117762
 C       -11.2922042904        5.2330838565        2.6774845265
 C       -10.0787592275        5.3597444477        1.7728599610
 O       -10.1757569218        5.5413901361        0.5319505159
 C        -8.6593156320        5.1216283584        2.3280083231
 C        -7.6237664556        5.7177099359        1.3177532153
 C        -7.8892413039        7.2554844993        1.1630827639
 O        -8.1599229919        7.9282984875        2.1370209303
 C        -7.9592579606        7.8632483962       -0.2515274188
 C        -9.4330505324        8.1341526249       -0.5888742759
 O       -10.0231373359        7.4861288505       -1.4422816743
 C       -10.0631594434        9.2339912828        0.2550004713
 C       -11.6184077430        9.2588069851        0.3661270398
 C       -12.3377302548       10.0193316260       -0.6784655082
 O       -11.7561574731       10.8167968717       -1.3853353449
 C       -13.9225091194        9.8890661222       -0.8765087430
 C       -14.1280501979        8.7595682197       -1.9451794813
 O       -13.4427776399        7.7868176187       -1.8661703549
 C       -15.2047819669        8.8385179594       -3.0159394043
 C       -14.6563322531        9.3539514869        0.4493245771
 C       -14.6698623508       11.1312474203       -1.2871839970
 C        -7.0980255753        9.1123655720       -0.1035410307
 C        -7.3951080241        6.9467378781       -1.4582261133
 C       -11.6875012124        6.6445990848        3.2063093906
 C       -11.0771356622        4.2314350586        3.8393018962
 C       -10.5964111972        1.7054175194       -2.7077305477
 C       -12.8283550126        0.6557299338       -2.2259486538
 C        -6.5513754941       -0.8526282738        2.7772538375
 C        -6.1887538617        1.7335234541        2.6519841470
 C        -5.4376299036       -3.7585890050       -2.0106050455
 C        -7.1928981776       -3.4233152992       -3.7329150157
 H        -7.6940918460       -5.8593338089       -1.9504924956
 H        -9.2726068741       -4.9965329080       -1.8769485477
 H        -8.6945735631       -5.7085524856       -0.5373203050
 H        -5.6914166815        0.3466256439       -1.8446365275
 H        -4.9345040216       -1.2270019322       -1.8327998141
 H        -4.9866383489       -1.0002883759        0.3705061084
 H        -6.5873957354       -1.5806417481        0.2866575146
 H       -10.4185427412       -0.1307669356        1.6735893388
 H        -8.9858062476       -1.0335367056        1.1186357049
 H        -8.9886531708        0.1192094153       -0.9097509482
 H        -9.0547817199        1.5951284373        0.0701889761
 H       -13.8417755852        1.9742894140        0.0349088119
 H       -14.1535908661        3.6775721540       -0.3104977358
 H       -12.0531453909        2.5471865646        1.7128411046
 H       -13.6572239984        3.1060037405        2.0816621959
 H        -8.5794565913        4.0482923899        2.4509814890
 H        -8.5483393249        5.5810318154        3.3796955151
 H        -7.6656430047        5.2052036527        0.3963822008
 H        -6.6437719761        5.4809875628        1.6937113077
 H        -9.7965182102       10.2556110912       -0.1698255935
 H        -9.6020091266        9.3031288857        1.2484134376
 H       -11.9343601750        9.7843353401        1.3146560388
 H       -12.0131609167        8.2005706139        0.3665728429
 H       -16.1808707497        8.8279437569       -2.5787613731
 H       -15.2402057857        7.9680560454       -3.6810242490
 H       -15.0626883865        9.8086593366       -3.6043811044
 H       -14.1771340508        9.6795736524        1.4177314231
 H       -14.8154897017        8.3064139603        0.5137191024
 H       -15.6168820241        9.8285542122        0.4954153219
 H       -14.6136425101       11.8318660347       -0.4998394608
 H       -15.7431787620       10.9163715150       -1.4725851811
 H       -14.3283103962       11.7299338230       -2.0472574336
 H        -7.1959710464        9.8065582926       -1.0067701211
 H        -5.9730705676        8.9072784360       -0.1331575866
 H        -7.2137783123        9.7061422943        0.7280853218
 H        -7.8675169870        5.9251004009       -1.4056998801
 H        -6.3027921630        6.9002128096       -1.2417884643
 H        -7.6634063262        7.3399328636       -2.4117981061
 H       -12.5437523963        6.5007389573        3.9034437866
 H       -12.0861641371        7.2032852742        2.3904302766
 H       -10.8206163607        7.1526612044        3.5854710077
 H       -10.5718772084        3.3752407681        3.4687616638
 H       -12.0372702963        4.1164948356        4.3676700831
 H       -10.4542529339        4.7113880634        4.6280780297
 H       -11.0936700945        1.8273502378       -3.6750318966
 H       -10.0235458737        0.8190694491       -2.9303262636
 H        -9.9799942083        2.5408943272       -2.4200473632
 H       -13.3593980314        1.2959152537       -2.9042871254
 H       -13.6429797780        0.3617130494       -1.4886822131
 H       -12.3605942319       -0.2114822831       -2.6648432785
 H        -5.5604297897       -1.0761048055        2.6439616489
 H        -7.0692715704       -1.6630437152        2.3297128316
 H        -6.6491733432       -0.7913010952        3.8936257460
 H        -6.2116841076        1.7485515151        3.7481458994
 H        -6.4908473100        2.6912239312        2.2813902070
 H        -5.1428907152        1.6559476252        2.3958105273
 H        -5.6629741392       -4.8052366742       -1.8535905222
 H        -5.0800756814       -3.3788714887       -1.0579643784
 H        -4.7223782178       -3.7244556453       -2.8442840984
 H        -7.4804671840       -4.4816888842       -3.8136925406
 H        -6.3737740444       -3.1721021319       -4.3555436106
 H        -8.0610931834       -2.9086322862       -4.0487424471
 Na      -12.0958684945        6.2322968390       -1.2451809439
