117

 C        -8.5949820979       -5.1566453641       -1.5194584181
 C        -7.8661802642       -3.9064778443       -1.1510809900
 O        -8.1514035638       -3.3053004674       -0.1385754666
 C        -7.0018826139       -3.1536659382       -2.2690760607
 C        -7.1619266599       -1.5335482571       -2.0431665495
 O        -8.1888056351       -1.0248847436       -2.4741940277
 C        -6.0029835647       -0.6967555712       -1.4100333857
 C        -6.0110077756       -0.7354374611        0.0885000224
 C        -6.3357707908        0.6644575972        0.7417203362
 O        -6.4686051702        1.6461155226        0.0295927251
 C        -6.8639831544        0.7718705847        2.2209435205
 C        -8.4415310976        0.9273415006        2.1254885386
 O        -8.9584029760        1.8406191829        2.7400406206
 C        -9.2592448659       -0.0880108121        1.4191292506
 C        -9.7328599670        0.4445940632       -0.0528302361
 C       -11.2460830517        0.7225401397       -0.1316398214
 O       -12.0243118652        0.4729297223        0.8445043902
 C       -11.8838887903        1.4047892663       -1.3586132520
 C       -12.2991291190        2.8536778910       -1.0069274201
 O       -11.7432533883        3.7608043475       -1.5455817240
 C       -13.3489484449        3.0001714980        0.0849873504
 C       -12.6867842533        3.3335845912        1.4297923542
 C       -12.3246356856        4.8117851519        1.5907470024
 O       -12.9569639260        5.6367960998        0.9612805667
 C       -11.1438817449        5.2118993233        2.6205285431
 C        -9.8510262434        5.3428405056        1.7888629000
 O        -9.8921438956        5.7912050729        0.6101457511
 C        -8.4397117172        4.9580990627        2.2972896364
 C        -7.4705968132        5.6666208704        1.2867896369
 C        -7.7948391585        7.2113236775        1.2041025711
 O        -7.9787577762        7.8148245709        2.2246643180
 C        -7.8417640885        7.9477491205       -0.1793614680
 C        -9.3723294042        8.1704945452       -0.5577406440
 O        -9.8988896440        7.5394829606       -1.4376733369
 C       -10.1590077569        9.1765475149        0.2595400397
 C       -11.7329199448        8.9673885209        0.1189304284
 C       -12.3628109393        9.9282945828       -0.8988629816
 O       -11.7888103556       10.8212274402       -1.5113439931
 C       -14.0169600365        9.7145406200       -1.1417221402
 C       -14.1943587956        8.6406199843       -2.2775407284
 O       -13.6898576480        7.5397375221       -2.0837419898
 C       -14.9856819238        8.9969050612       -3.4796672410
 C       -14.8058568352        9.3554525232        0.1800098196
 C       -14.5336017291       11.1572391807       -1.4951890479
 C        -7.1936491283        9.3512017902       -0.0691835344
 C        -7.0803907641        7.0799221404       -1.3104653358
 C       -11.3663408572        6.6376140265        3.1843146484
 C       -10.9557893406        4.1355921735        3.6591387536
 C       -10.8339536997        1.4761667434       -2.5490366205
 C       -13.1601841236        0.5742450887       -1.7925651908
 C        -6.6348403796       -0.5376140864        3.0391623422
 C        -6.2145627387        1.9689297333        2.9130970177
 C        -5.5093374984       -3.6627820636       -2.1319193731
 C        -7.5606471217       -3.4319871272       -3.6547421332
 H        -8.0020993348       -5.9344248983       -2.0922326246
 H        -9.4471421533       -4.9502762506       -2.1443487053
 H        -9.0135923171       -5.6565127724       -0.6238523844
 H        -6.1622160224        0.3220425893       -1.8716241922
 H        -5.0244533099       -1.1137353248       -1.6860736492
 H        -4.9944110351       -1.0928310845        0.4607577131
 H        -6.8183043097       -1.4171576916        0.4514705439
 H       -10.2283306830       -0.2635705130        1.9523787901
 H        -8.7132160209       -0.9994278438        1.1684689454
 H        -9.5071914520       -0.3476326439       -0.7283810457
 H        -9.1561548963        1.3244888207       -0.3500358246
 H       -13.9301596435        2.0871514153        0.1036695750
 H       -14.0523945196        3.7877708967       -0.2156811168
 H       -11.7397716209        2.7739016880        1.5419631420
 H       -13.4292451918        3.0409884297        2.2164186237
 H        -8.3700422593        3.9026312968        2.2113568388
 H        -8.3549993043        5.2493174388        3.3633119716
 H        -7.5275486005        5.1627938950        0.3688626408
 H        -6.3800737491        5.6386992009        1.5869162900
 H        -9.9496561332       10.1465417492       -0.1554626720
 H        -9.7939246672        9.2912265726        1.2801113362
 H       -12.3073271706        9.1364509663        1.0186871231
 H       -11.9952640257        7.9507882947       -0.2534358133
 H       -15.8361919146        9.5481612240       -3.1656708867
 H       -15.3295657659        8.1543810547       -4.0296419559
 H       -14.3529992655        9.6954799713       -4.0441259037
 H       -14.9416861846       10.2783056690        0.7804635001
 H       -14.3147054979        8.5661893807        0.7705780902
 H       -15.8149721743        9.0705756848        0.0144798723
 H       -14.2731602463       11.8318787518       -0.7089754494
 H       -15.6924651501       11.1648776329       -1.5268257613
 H       -14.1747707100       11.7140054701       -2.3579458707
 H        -7.2350572564        9.9297714149       -0.9768636588
 H        -6.1181334112        9.3066734049        0.0127102787
 H        -7.5384207308        9.9676001525        0.7140258835
 H        -7.7684787312        6.3324740432       -1.6043392812
 H        -6.1330466344        6.6505757142       -1.0209264625
 H        -6.9804561016        7.8198186622       -2.1071503230
 H       -12.2848830564        6.6181849409        3.7792526297
 H       -11.4555436691        7.3129828339        2.3628412355
 H       -10.4409826024        6.9888064630        3.6927293817
 H       -10.6478119455        3.2615212605        3.1375592139
 H       -11.9439144188        3.9286908638        4.2040760890
 H       -10.2368317604        4.4624259355        4.3749019572
 H       -11.2917307439        2.0641330674       -3.4067381946
 H       -10.8045833921        0.4672265333       -2.9360518888
 H        -9.8915853038        1.9256287874       -2.3348436149
 H       -14.0052147982        1.2317371349       -1.9524012762
 H       -13.4234128994       -0.1059410556       -0.8940593137
 H       -12.8934792451       -0.0650223912       -2.5850031129
 H        -5.5915627163       -0.7755788190        3.2841116105
 H        -7.0441212159       -1.4318516334        2.5802096810
 H        -7.1179806257       -0.4159713907        4.0666845116
 H        -6.4254270639        1.9901409788        4.0095297986
 H        -6.5081092036        2.8705294461        2.4165246897
 H        -5.1145670430        1.9663592676        2.8498133188
 H        -5.3518796870       -4.7168847533       -2.4578410070
 H        -5.1048643555       -3.4980265644       -1.1406496415
 H        -4.9310874104       -3.0462110520       -2.8413435351
 H        -7.3522601268       -4.4726848926       -4.0656230590
 H        -7.1501263068       -2.6676916943       -4.3384300618
 H        -8.6369661324       -3.3051907967       -3.6614100664
 Na      -11.6635739037        6.0613065007       -1.1354899903
