117

 C        -8.8612946609       -5.0127426173       -1.3870800920
 C        -8.2888347891       -3.6238095821       -1.1098575869
 O        -8.5463859835       -3.0210524230       -0.0857427626
 C        -7.3796186198       -2.9399565537       -2.1980365820
 C        -7.4478079882       -1.3850853522       -1.9736046487
 O        -8.4219225162       -0.7679395268       -2.3345537443
 C        -6.1881135080       -0.6248422519       -1.4425514046
 C        -6.2928009654       -0.7544420678        0.1318046387
 C        -6.3213539574        0.6123533779        0.8309961337
 O        -5.8039229548        1.5628148847        0.2865329901
 C        -6.9668017670        0.7790519873        2.2262898276
 C        -8.4593943017        1.1301053217        1.9418610917
 O        -8.8453519148        2.2955630304        1.9257219954
 C        -9.4891964293        0.0241750881        1.6048317489
 C       -10.0394366930        0.0945996178        0.1859822184
 C       -11.5455596600        0.5537764106        0.2331691628
 O       -12.1592143753        0.4530530100        1.2783299522
 C       -12.2329045984        1.1969295491       -1.1110390160
 C       -12.4562640455        2.6721285960       -0.7956413734
 O       -11.7345455020        3.5133779340       -1.3501067835
 C       -13.4816722231        3.1273837853        0.2576578130
 C       -12.7625228591        3.5098474745        1.5781959931
 C       -12.2887437110        5.0110700384        1.8391351727
 O       -12.7867437108        5.9915400127        1.2925953038
 C       -10.9627379780        5.2102876788        2.6949827557
 C        -9.7140894617        5.2510272615        1.6782775541
 O        -9.8449559378        5.2042634933        0.4902447662
 C        -8.3056863322        5.4480130670        2.1914512465
 C        -7.4129650110        6.0506830978        1.0741256452
 C        -7.6966285790        7.5842394095        1.1189624134
 O        -8.1026672708        8.1159894968        2.1064639584
 C        -7.7540281345        8.3793901337       -0.2713376678
 C        -9.3399700899        8.3253458443       -0.4900999085
 O        -9.7827201521        7.3729430955       -1.1209965443
 C       -10.1491179121        9.3761594106        0.1791034268
 C       -11.6754858539        9.1665185256        0.1525362173
 C       -12.2097742356        9.7349946805       -1.1883600176
 O       -11.4871229173       10.4480073776       -1.8581353311
 C       -13.6734122135        9.4078460724       -1.5866698719
 C       -13.5079693626        8.2788297833       -2.6225196795
 O       -13.0671092588        7.1671854814       -2.2817730912
 C       -13.9964076879        8.5662428245       -3.9834336553
 C       -14.4137598845        8.7843171779       -0.3638341584
 C       -14.3813429809       10.6913538417       -2.1806829077
 C        -7.1341502562        9.7757424093       -0.1752581325
 C        -7.0972209643        7.5203893471       -1.3794294241
 C       -11.1863122267        6.5542066399        3.3902548517
 C       -10.7840418182        4.0369865909        3.7393503727
 C       -11.2683159088        1.0630206436       -2.3542254756
 C       -13.6390281666        0.5403297674       -1.4229543248
 C        -6.8294634323       -0.5176435244        3.0289340338
 C        -6.1943083445        1.9668629345        2.9674294588
 C        -5.9232904388       -3.6558994228       -2.1804686525
 C        -7.9887652905       -3.2096573564       -3.5639809495
 H        -8.1678053929       -5.6961205113       -1.8864991176
 H        -9.6141022353       -5.0557677585       -2.1513111481
 H        -9.0761507404       -5.4774340337       -0.4040116148
 H        -6.2653685670        0.4118768961       -1.8015250941
 H        -5.2984082776       -1.1302320088       -1.8901084696
 H        -5.4077251441       -1.2718221268        0.4083806414
 H        -7.1778261592       -1.2630579601        0.5068722674
 H       -10.3021480763        0.1170637048        2.3159291905
 H        -8.9990964917       -0.9400245840        1.8147009208
 H       -10.0154434396       -0.9103908972       -0.2763177439
 H        -9.4258665790        0.7858561935       -0.4097388418
 H       -14.2830826803        2.3864070771        0.4272145782
 H       -14.0339653515        3.9433760632       -0.1564102396
 H       -11.8628505207        2.9256499924        1.7074169136
 H       -13.4687209474        3.2626207023        2.3657524109
 H        -7.8976122001        4.4795102983        2.5435554195
 H        -8.3435568805        6.1463923826        2.9768056502
 H        -7.6819219270        5.7338025529        0.0910181423
 H        -6.3966797987        5.8584936244        1.2863443908
 H        -9.8241615474       10.3840584622       -0.1521166717
 H        -9.8323073912        9.3391471555        1.2371870559
 H       -12.2424277552        9.6760222369        0.9795053936
 H       -11.9074023022        8.0902311878        0.2675986048
 H       -15.0991831918        8.6609059678       -3.9055705711
 H       -13.6681813221        7.7651957995       -4.6284640740
 H       -13.6465283606        9.4983366748       -4.2814835331
 H       -14.5873991174        9.5240342495        0.3457788814
 H       -13.8449453597        7.9585014972        0.1218270995
 H       -15.3762158301        8.3889203993       -0.7336786932
 H       -14.4845872006       11.3420772893       -1.3397983711
 H       -15.3439393922       10.5936977085       -2.6265255955
 H       -13.7477573490       11.1663103616       -2.9576761511
 H        -7.5047019635       10.3133468145       -1.0362751844
 H        -6.0750394087        9.8985722337       -0.0158438854
 H        -7.6323252133       10.3853205406        0.6605288579
 H        -7.7511253711        6.7345742968       -1.6180079676
 H        -6.1624049804        7.2150627555       -0.9783152573
 H        -6.9535755850        8.2136306640       -2.2578991597
 H       -11.7290562558        6.3348786109        4.2578967446
 H       -11.6838171816        7.2531753776        2.7074561529
 H       -10.2502473182        6.9341731287        3.7881442858
 H       -10.4708288890        3.0751631283        3.2682758981
 H       -11.7311064976        3.7617218260        4.1663838775
 H       -10.0377754498        4.3438544913        4.4475617960
 H       -11.7123279503        1.6775957557       -3.1024169286
 H       -11.0732299831        0.0262554264       -2.6127764452
 H       -10.2822724966        1.5028706141       -2.1854421170
 H       -14.2404449479        1.2208694969       -2.0418468224
 H       -14.0384764260        0.2906974356       -0.4667153602
 H       -13.4752707696       -0.3462289889       -2.0506759859
 H        -5.7356987316       -0.6814244769        3.2559035361
 H        -7.2185954680       -1.4512726256        2.6506175657
 H        -7.3292715333       -0.4594850527        3.9297460191
 H        -6.5661057804        2.1893998321        3.9633524942
 H        -6.2086665267        2.9271432544        2.3988695276
 H        -5.1511716072        1.6027229052        3.0737580197
 H        -5.9129223647       -4.5455866256       -2.8155602944
 H        -5.5857374731       -4.0241247877       -1.2020395004
 H        -5.0951034056       -3.0119934699       -2.4781981685
 H        -7.9899910417       -4.2483258929       -3.8551658624
 H        -7.4551745207       -2.7113125723       -4.4124930928
 H        -9.0164422416       -2.7583027126       -3.5633169874
 Na      -11.6023488776        5.6905980867       -0.9240266054
