117

 C        -8.9043505002       -4.9333629983       -1.2987393346
 C        -8.4577529475       -3.5124448045       -1.1133686602
 O        -8.6554059884       -2.8581350505       -0.1098947147
 C        -7.5333768489       -2.8846041855       -2.2286763017
 C        -7.4734857840       -1.3434298865       -2.0367119104
 O        -8.4269416495       -0.6802579563       -2.4043206831
 C        -6.2451638329       -0.6927618323       -1.4405180017
 C        -6.2546825868       -0.7772844235        0.0574782657
 C        -6.1822171894        0.5845618307        0.8213105535
 O        -5.6742137313        1.5816331686        0.3767644155
 C        -6.9709235557        0.7249411953        2.2576663913
 C        -8.4563970800        1.0889891175        1.8440729585
 O        -8.7727747384        2.2583338340        1.8325398826
 C        -9.5220637426        0.0314783673        1.6466259585
 C       -10.2276476553        0.1435087969        0.2717734542
 C       -11.6322048545        0.6614878513        0.3538240719
 O       -12.3542364789        0.6424210244        1.3038302663
 C       -12.2919891718        1.1790541546       -0.9736743376
 C       -12.4962652921        2.6892665373       -0.7146534621
 O       -11.8982671506        3.5416765358       -1.3648409635
 C       -13.3831447227        3.1467381825        0.4317465352
 C       -12.7387736633        3.4491703416        1.8167161059
 C       -12.1907406082        4.8994700615        1.7835701017
 O       -12.7986967074        5.7639550198        1.1942175657
 C       -10.8395135594        5.2150664097        2.6900280777
 C        -9.6569115636        5.1796449482        1.7174603093
 O        -9.8189318125        4.9665451829        0.5347772594
 C        -8.2663281588        5.3903516723        2.3089316423
 C        -7.3134160130        6.1123843717        1.3991469854
 C        -7.6010126793        7.6463382983        1.1500477273
 O        -7.7957067863        8.4526194824        2.0647773948
 C        -7.7811979905        8.3275541597       -0.2999496113
 C        -9.3063372483        8.3610855718       -0.5099676711
 O        -9.9587674793        7.4530924850       -1.0035546419
 C       -10.0726605134        9.5763945021        0.2143780032
 C       -11.5687128353        9.5485754699        0.1340799989
 C       -12.2092488570        9.7327034171       -1.2606469373
 O       -11.5762295513       10.3254979080       -2.0993298428
 C       -13.6990870217        9.2007251530       -1.6815162773
 C       -13.2845132871        8.0567331543       -2.7596693064
 O       -12.8028006285        7.0029632441       -2.4465072381
 C       -13.5795979796        8.1821576245       -4.2269958362
 C       -14.6363591946        8.5531347323       -0.6798204481
 C       -14.3590805984       10.4829816918       -2.2253936175
 C        -7.2369982836        9.7449458671       -0.1610197582
 C        -7.0115264311        7.6826210200       -1.5205124107
 C       -10.9308274695        6.6471622480        3.3887099954
 C       -10.7116115889        4.1257821525        3.7183845809
 C       -11.4623417073        1.0062333963       -2.3209704794
 C       -13.6862828945        0.5020717224       -1.1900841707
 C        -6.9165417272       -0.5339294809        3.0889585098
 C        -6.3558001020        1.9191829217        3.0509239522
 C        -6.1148232839       -3.6090639294       -2.0894194011
 C        -8.2369509303       -3.2490387810       -3.6366870818
 H        -8.3180288262       -5.5662757526       -1.9132930651
 H        -9.8058308230       -4.9837501934       -1.9337564264
 H        -8.9601657539       -5.3661579539       -0.3468493726
 H        -6.2027180995        0.3241288810       -1.8391402213
 H        -5.4480492536       -1.2028685580       -1.9151496275
 H        -5.3548402153       -1.3759110780        0.2641398746
 H        -7.0840217501       -1.2574352673        0.5365778333
 H       -10.2709401499        0.2419314438        2.4360638718
 H        -9.1398989936       -0.9498651095        1.9045050801
 H       -10.3034782900       -0.8815349656       -0.1402957096
 H        -9.7214295768        0.7668710486       -0.4841471073
 H       -14.1614221933        2.4040251995        0.5607348237
 H       -13.9782877135        4.0417769636        0.1036394217
 H       -11.9756189861        2.7212266906        2.1489070762
 H       -13.5833123835        3.4203862015        2.5240148402
 H        -7.8426619845        4.4014156287        2.4151399336
 H        -8.3969331872        5.8864236307        3.3281321388
 H        -7.2400707926        5.5525331752        0.4148584742
 H        -6.3075848236        6.1426301350        1.9189021905
 H        -9.7622384086       10.5583393464       -0.1707749842
 H        -9.8165802275        9.6006674292        1.3037650664
 H       -12.0485142642       10.2908582936        0.7467462946
 H       -11.9354597877        8.5954090645        0.5189891749
 H       -14.5765104627        8.5115176473       -4.4300919431
 H       -13.3233596142        7.1585810067       -4.5046136555
 H       -12.8271625657        8.8423101025       -4.7787542076
 H       -14.6876706148        9.2336011921        0.2240727827
 H       -14.2602114844        7.6415804446       -0.3418526746
 H       -15.5724652122        8.4346275883       -1.1834911164
 H       -14.7053764395       11.0504476443       -1.3055569346
 H       -15.2326892471       10.1329574908       -2.7770999299
 H       -13.7917751252       11.0579843382       -2.9286360453
 H        -7.5500026894       10.4855222242       -0.9087616770
 H        -6.1515916690        9.6040201249       -0.0797403844
 H        -7.4459590893       10.2388574360        0.7858718196
 H        -7.7797873997        6.9721269925       -1.9901973703
 H        -6.0401403817        7.2739755996       -1.1491385323
 H        -6.8761998946        8.4543902456       -2.2113790396
 H       -11.8596488484        6.6695333563        4.0172090429
 H       -11.0113038215        7.4287815580        2.6558791272
 H       -10.1750293384        6.6804699129        4.1323892774
 H       -10.3708338252        3.1511927101        3.3951415893
 H       -11.7021947448        3.9821628787        4.1666567888
 H        -9.9573742533        4.4604404242        4.4891580881
 H       -12.1283624704        1.2410170934       -3.1753770000
 H       -11.1372311710       -0.0447414680       -2.3396783079
 H       -10.4896734663        1.5204572028       -2.3511986984
 H       -14.3363817833        1.2757079305       -1.5616165801
 H       -13.9512954236        0.0582795349       -0.2395303652
 H       -13.5848740349       -0.2069889965       -2.0151232042
 H        -6.0000032828       -0.6532728711        3.5486166052
 H        -7.0507839153       -1.4673989094        2.5097284311
 H        -7.6656083498       -0.5952172854        3.9348478902
 H        -6.2470113851        1.5705358236        4.0834364742
 H        -7.0557124579        2.7276149274        3.1619955244
 H        -5.3921303997        2.2418916276        2.6815703787
 H        -6.1158859479       -4.6788405399       -1.9501929426
 H        -5.4249356624       -3.2310846292       -1.3378840716
 H        -5.5531480033       -3.4409623894       -3.0137300356
 H        -8.1662326719       -4.2982286413       -3.9682839201
 H        -7.7385379354       -2.7206768390       -4.4190264312
 H        -9.2456350979       -2.8881895596       -3.6525729920
 Na      -11.5430889138        5.8914714689       -0.9470375707
