117

 C        -9.0102335464       -4.9312256010       -1.1377296171
 C        -8.4845801234       -3.4925611431       -1.0745708121
 O        -8.7365787990       -2.7664227006       -0.1370423590
 C        -7.5935357523       -2.8680264448       -2.2397097172
 C        -7.5943083543       -1.2789156306       -2.1328597394
 O        -8.5121516741       -0.5796682711       -2.4591386832
 C        -6.2342144018       -0.6950957143       -1.4275451335
 C        -6.2392375645       -0.7710561842        0.1231010669
 C        -6.2517317252        0.5937828101        0.8779842125
 O        -5.6102149452        1.5241233384        0.4403889729
 C        -6.9929199025        0.6698370345        2.2387042393
 C        -8.5041489119        1.0582775530        1.8978649531
 O        -8.7746459890        2.2521237157        1.7301221441
 C        -9.5603477490       -0.0108613181        1.6432405207
 C       -10.2723845905        0.1570264850        0.2820819024
 C       -11.7038375176        0.6850646630        0.3990798371
 O       -12.3121699206        0.6103860950        1.3840715180
 C       -12.3764698750        1.2568690612       -0.9638843113
 C       -12.5131777941        2.8051709320       -0.6706655090
 O       -11.9234983392        3.6705447856       -1.4025272438
 C       -13.4921194287        3.1406586528        0.5034769880
 C       -12.7141740766        3.4504608729        1.8235216540
 C       -12.1680908015        4.9006571431        1.9224801400
 O       -12.5842759513        5.7126949781        1.1230940988
 C       -10.9278760886        5.1933623363        2.7372216083
 C        -9.6361373086        5.1586551694        1.6244431132
 O        -9.7309147970        4.9145952469        0.4867880420
 C        -8.2285328143        5.4445145630        2.2878969395
 C        -7.2168619117        6.2128236350        1.4033328475
 C        -7.5696652393        7.6896504196        1.1997634663
 O        -7.6562074667        8.4072048521        2.1602826891
 C        -7.7476934123        8.4009612661       -0.2468450067
 C        -9.3771425098        8.4872394769       -0.4015195219
 O        -9.9052066938        7.5802124036       -1.0176342273
 C       -10.1379356549        9.6579241169        0.1137323056
 C       -11.6926314782        9.5397018752        0.1799790971
 C       -12.2312960645        9.6424523164       -1.3498982010
 O       -11.5554866207       10.2494911157       -2.1676428813
 C       -13.6318337547        9.0453648983       -1.8373510864
 C       -13.2213172029        7.9097113988       -2.8771644058
 O       -12.6717169466        6.9058290354       -2.4260169771
 C       -13.4202939488        8.1851718102       -4.4139566611
 C       -14.4557589217        8.4500497253       -0.6616729543
 C       -14.4001201050       10.2824336214       -2.4794714981
 C        -7.1433746956        9.8423824991       -0.2381483098
 C        -7.1563112186        7.5959713150       -1.4287756947
 C       -10.9537044218        6.6459284685        3.2853416790
 C       -10.5975549869        4.1835890079        3.8730688906
 C       -11.5298546726        0.9566736140       -2.2786913107
 C       -13.7425696182        0.4869638202       -1.0102610855
 C        -6.9414654413       -0.6402708885        3.0474046838
 C        -6.3733716553        1.8966787746        3.0650030333
 C        -6.2515630858       -3.5887757090       -2.1839989188
 C        -8.1755580156       -3.1970582884       -3.6098490083
 H        -8.5689739952       -5.6699669125       -1.7251195547
 H        -9.9595565245       -4.8317395612       -1.7198031369
 H        -9.1213367852       -5.3125129848       -0.1273836797
 H        -6.1755259288        0.3262183735       -1.7992558520
 H        -5.4039071020       -1.1412624828       -1.9904768860
 H        -5.3247847222       -1.3274986210        0.4737378978
 H        -7.1282997347       -1.3231733869        0.6031892505
 H       -10.3109799766        0.0068302742        2.4767426423
 H        -9.0624463615       -0.9941505504        1.7624677750
 H       -10.2387618364       -0.8640379427       -0.1744393466
 H        -9.7997818391        0.8195946632       -0.3870492338
 H       -14.1496775416        2.2668603059        0.6356941194
 H       -14.1859447823        3.9634936703        0.2317231066
 H       -11.8727065607        2.7083455823        2.0213576936
 H       -13.4360637670        3.3220077229        2.6630834267
 H        -7.7892111256        4.4773688737        2.5223099026
 H        -8.4437422101        6.0213187673        3.2160437257
 H        -7.0567271363        5.6826667104        0.3907425467
 H        -6.2863090169        6.2943695723        1.9220942558
 H        -9.9152726784       10.5314592262       -0.5196756898
 H        -9.7281090693        9.8776030295        1.0675325267
 H       -12.1545885198       10.3954854816        0.6841837452
 H       -12.0386719374        8.6804091616        0.6733843786
 H       -14.3519749294        8.7713243188       -4.5800905134
 H       -13.3279324980        7.2260182616       -4.9427236139
 H       -12.5553763403        8.7522760861       -4.7489015453
 H       -14.4251272989        9.1107423064        0.1808117288
 H       -14.1223523999        7.4694547664       -0.3188617963
 H       -15.4654869281        8.3918294886       -1.1310741164
 H       -14.6717035643       10.9215649346       -1.5806011887
 H       -15.2840027377        9.9148620402       -2.9546537262
 H       -13.8274481679       10.8728823747       -3.2795869452
 H        -7.5037417960       10.5198514291       -0.9375718300
 H        -6.1102638440        9.7828440272       -0.1675845931
 H        -7.4148305280       10.3215380805        0.7962140157
 H        -7.8179091939        6.7469882848       -1.5833558166
 H        -6.1671646791        7.3817553520       -1.0733613463
 H        -7.1614955321        8.1795087877       -2.3601181640
 H       -11.9486794881        6.8674423077        3.7254145910
 H       -10.8169887955        7.4140593204        2.4722099005
 H       -10.3080306791        6.6029717785        4.1405598586
 H       -10.2466075921        3.1703227540        3.5111432396
 H       -11.3873686502        4.0347673517        4.5644472845
 H        -9.6996076377        4.5882079739        4.4170851663
 H       -12.1111816491        1.0294050963       -3.1729242359
 H       -11.1256579679       -0.0777380948       -2.1849301851
 H       -10.5510146664        1.5235264947       -2.2562088730
 H       -14.4383064722        1.0639210936       -1.6376931119
 H       -14.0031740025        0.3437868235       -0.0270130446
 H       -13.4996516660       -0.4732308335       -1.5558497019
 H        -5.9353878654       -0.8313014587        3.5161502831
 H        -7.2061504714       -1.6330578072        2.5574248117
 H        -7.5450193449       -0.5235202197        3.9179488816
 H        -5.9716073904        1.5573990092        3.9844714822
 H        -7.1776574626        2.5854888722        3.3724526094
 H        -5.6152397141        2.3924717017        2.4820682808
 H        -6.2554881132       -4.5906511584       -1.8330701152
 H        -5.5072489351       -3.0978215946       -1.5313044626
 H        -5.7595592340       -3.6372439784       -3.1364859338
 H        -8.1421240176       -4.2176794587       -3.8208712667
 H        -7.5094753847       -2.7499896925       -4.3225147331
 H        -9.1791109634       -2.8153802306       -3.8115737739
 Na      -11.6082093928        5.9439045806       -0.8802127196
