117

 C        -9.1020199796       -4.7825049665       -1.0383735750
 C        -8.6085674468       -3.3732078805       -1.0667017409
 O        -8.8370208808       -2.6855022268       -0.0722152970
 C        -7.5919694033       -2.8930833437       -2.2918954982
 C        -7.5313346641       -1.3033515804       -2.0404619659
 O        -8.4438354104       -0.6100630307       -2.4513883232
 C        -6.3638663908       -0.4929748537       -1.3855423836
 C        -6.3258612377       -0.8275448851        0.0917307054
 C        -6.2443022150        0.5384791528        0.8923415235
 O        -5.5964476895        1.4425678267        0.4600960867
 C        -7.0748944121        0.6667523358        2.2978658345
 C        -8.4990120866        1.0688774976        1.8766260998
 O        -8.8272372361        2.2314479834        1.6788945151
 C        -9.5656305830       -0.1002951725        1.6142282058
 C       -10.1710367855        0.1599680064        0.2552605684
 C       -11.6607462735        0.6847011936        0.3562947534
 O       -12.2746923515        0.5828640654        1.4503996395
 C       -12.4266008719        1.2466768833       -0.8497790455
 C       -12.6126575594        2.7870793890       -0.6406029775
 O       -12.0389108362        3.6250699476       -1.2979593965
 C       -13.5108797440        3.2257621058        0.5753959153
 C       -12.6741557788        3.4596942620        1.8182635599
 C       -11.9988108407        4.8307609701        1.8215759282
 O       -12.4807533473        5.7659608452        1.1717243733
 C       -10.7506529336        5.1696474680        2.6813534427
 C        -9.5688822959        5.2006427007        1.6929177351
 O        -9.7413876308        4.9678331464        0.4888023672
 C        -8.2050832223        5.5482089285        2.2637053432
 C        -7.2181873720        6.2659644646        1.2743977206
 C        -7.5284981346        7.8072352696        1.2494003476
 O        -7.6007642518        8.3965473699        2.2910606600
 C        -7.8030484515        8.4469508667       -0.1540068029
 C        -9.4211059200        8.5767677745       -0.3776239342
 O        -9.8731368101        7.6404461797       -1.0071185965
 C       -10.1882134275        9.7950783954        0.0836394497
 C       -11.7285093895        9.4582950706       -0.0070824179
 C       -12.1922545546        9.5985316656       -1.4400564530
 O       -11.5205188419       10.1853414640       -2.2369681892
 C       -13.5731777586        8.9745365999       -1.8906310042
 C       -13.1601663351        7.9176667752       -2.9545157492
 O       -12.6825723546        6.8324450548       -2.6415094357
 C       -13.2473681790        8.1640174683       -4.4269167507
 C       -14.2564385539        8.3488472615       -0.6958194149
 C       -14.3916977000        9.9998830628       -2.6697090298
 C        -7.1077370460        9.8484865864       -0.2426977111
 C        -7.3139523611        7.4988544693       -1.2817001018
 C       -11.0076694130        6.6395584080        3.1468257037
 C       -10.4885156172        4.2475541469        3.9271103281
 C       -11.6426173268        1.0060697986       -2.1048354609
 C       -13.7992414874        0.5503902370       -0.9599971505
 C        -6.9546001718       -0.6528505805        3.0327570568
 C        -6.4064717219        1.7774405059        3.0744596114
 C        -6.2958186806       -3.5793506706       -2.2010470094
 C        -8.2808537429       -3.1654514184       -3.6951741530
 H        -8.4357732818       -5.4803113349       -1.6258672500
 H       -10.0166229554       -4.9338668426       -1.5563502186
 H        -9.0929819215       -5.1532187762        0.0126314785
 H        -6.5641118685        0.5463283503       -1.6652486951
 H        -5.4662332750       -0.6874207811       -2.0392740034
 H        -5.3836149945       -1.3763933594        0.3552578616
 H        -7.1752160292       -1.4696664212        0.4856064207
 H       -10.3272285679       -0.0988688543        2.4157571282
 H        -9.0965536124       -1.1027238038        1.7089875260
 H       -10.1081797620       -0.7945973246       -0.2500904826
 H        -9.6392926781        0.9040482619       -0.3551777526
 H       -14.3598656292        2.5215315541        0.7295866451
 H       -13.9527061847        4.1676441904        0.2710154079
 H       -11.9000584832        2.6975089891        1.9583200932
 H       -13.3226157270        3.4338564691        2.7297339663
 H        -7.7483187978        4.5712968966        2.5599693891
 H        -8.4050953902        6.1319008747        3.1153624547
 H        -7.3133576736        5.8308551628        0.3361770757
 H        -6.1855900573        6.1694109271        1.5809517804
 H        -9.9531411053       10.6328707781       -0.5533879244
 H        -9.9076138100       10.0329538989        1.0935524023
 H       -12.3862007246       10.1515714296        0.5382326081
 H       -11.9403119118        8.4703821605        0.4043802281
 H       -14.1464249194        8.7618717166       -4.6451583965
 H       -13.1365774903        7.2319003499       -4.9805951632
 H       -12.3717546349        8.7091488412       -4.6620043280
 H       -14.2731646702        9.0146169265        0.1229388789
 H       -13.7022813577        7.4095664600       -0.3697350694
 H       -15.2618031175        8.0879600593       -1.0524519691
 H       -14.6075767791       10.8013448352       -2.0174200414
 H       -15.3248505414        9.5240293581       -3.1330321964
 H       -13.7580254852       10.3783276854       -3.5016460354
 H        -7.4690223937       10.4262325400       -1.0991427286
 H        -6.0207153156        9.7340644646       -0.2144467259
 H        -7.3315186586       10.4444799568        0.5939001065
 H        -7.7903132306        6.6025053802       -1.1981409348
 H        -6.2748379868        7.5137333724       -1.1044893634
 H        -7.5969570341        7.8649467153       -2.3031740721
 H       -12.0339326422        6.7535804187        3.4547577747
 H       -10.9366626799        7.3145333274        2.2720480526
 H       -10.3710142590        6.8335855444        4.0524213656
 H       -10.3560920724        3.2010931468        3.5983929087
 H       -11.3326062825        4.3054509824        4.6818738523
 H        -9.5867775823        4.4723698416        4.4603744001
 H       -12.3358901839        1.2161501986       -2.9371577633
 H       -11.2528597794       -0.0057918767       -2.2531476819
 H       -10.7778425753        1.6273312823       -2.0570031368
 H       -14.2691951187        0.9322096791       -1.8604194948
 H       -14.3129732309        0.8189734115       -0.0089741594
 H       -13.5995996219       -0.4919432630       -1.0533735420
 H        -5.8665627228       -0.9711892170        3.2297879082
 H        -7.3765058678       -1.5004987047        2.5071310687
 H        -7.3218330869       -0.5934937144        4.0538670837
 H        -5.6442776886        1.4031812223        3.7560959799
 H        -7.1259170451        2.3389917321        3.6634931726
 H        -5.9630538195        2.4059349638        2.3049131477
 H        -6.3510957029       -4.6668925858       -2.0982581246
 H        -5.7786779697       -3.2617366303       -1.3158464501
 H        -5.6026934421       -3.4505878463       -3.0190953433
 H        -8.4961643072       -4.2209950800       -3.7826384818
 H        -7.5901872897       -2.9060991880       -4.5064573222
 H        -9.2208082180       -2.6706943163       -3.8572785950
 Na      -11.5911611276        5.9311354084       -0.7598667986
