117

 C        -9.1423560254       -4.7365394396       -1.0730343209
 C        -8.5739690385       -3.3024984427       -1.0472049568
 O        -8.8676279447       -2.5166790767       -0.1637950229
 C        -7.6740269113       -2.8554621175       -2.1658820981
 C        -7.5660636128       -1.2626558083       -2.1708371523
 O        -8.5624774927       -0.6254810988       -2.5096685682
 C        -6.4229332384       -0.5275039660       -1.3827507248
 C        -6.4029785205       -0.8625218437        0.1124219289
 C        -6.2298881890        0.4533702191        0.9108215708
 O        -5.6091019799        1.4136921653        0.5112994050
 C        -7.0259244994        0.6315237580        2.2576838233
 C        -8.4857344134        1.0125337740        1.8409072857
 O        -8.8471925627        2.1535195127        1.7366117925
 C        -9.5621092045       -0.0816415373        1.5347936257
 C       -10.2336427215        0.1963879573        0.2067389500
 C       -11.6822299476        0.6194345309        0.4141222327
 O       -12.1835878957        0.5225304674        1.5601546001
 C       -12.4459901660        1.2717666377       -0.8051173561
 C       -12.7012665933        2.7886133241       -0.5110617893
 O       -12.1241035469        3.5230146069       -1.2155534367
 C       -13.5015284738        3.3279728822        0.6683813790
 C       -12.6341101182        3.5134208290        1.8679226647
 C       -11.9312308525        4.8252709403        1.8386497451
 O       -12.5139175874        5.7539224603        1.2704127460
 C       -10.6949098327        5.2191992199        2.6495598848
 C        -9.4507596095        5.2336007183        1.7183623460
 O        -9.6390694005        5.1123751828        0.4993872683
 C        -8.0866597870        5.5571518513        2.3296144068
 C        -7.2763763957        6.2644328230        1.2695238614
 C        -7.6008927683        7.7965850151        1.2832018334
 O        -7.5805740864        8.4683035746        2.3232208681
 C        -7.8446206039        8.4568229444       -0.1385698256
 C        -9.3518532193        8.5850477453       -0.3835180428
 O        -9.9854938669        7.6913927104       -0.9198888981
 C       -10.1821015794        9.7719247201        0.1420955099
 C       -11.6794905223        9.4411285506       -0.1029590941
 C       -12.0851010298        9.6279836394       -1.5801210031
 O       -11.4593285367       10.2075780519       -2.4336677951
 C       -13.5131328366        8.8743244537       -2.0278073701
 C       -13.0302997451        7.7364869251       -3.0698482382
 O       -12.6626369471        6.6426874101       -2.7151720549
 C       -13.0615961387        8.1256021183       -4.5674927898
 C       -14.2385941177        8.1992727589       -0.7861357236
 C       -14.4481668427        9.9300503559       -2.6623811706
 C        -7.1347212718        9.8211493510       -0.2078356784
 C        -7.3404167285        7.5818598379       -1.3156408011
 C       -10.9595102814        6.6903537941        3.1595396150
 C       -10.4665050940        4.3248210463        3.8295277390
 C       -11.6662963048        1.1071696072       -2.1784059938
 C       -13.9044461274        0.5521599033       -0.9174591443
 C        -6.9527872217       -0.6997104346        3.0844387405
 C        -6.4115352595        1.7747500748        3.1226269718
 C        -6.3344763803       -3.5454466465       -2.1007120279
 C        -8.3899346071       -3.0905373807       -3.5549009208
 H        -8.4873342063       -5.4546140679       -1.6557940416
 H       -10.0876256031       -4.8104436205       -1.6286642249
 H        -9.2335700916       -5.1609768317       -0.0627847048
 H        -6.5406179074        0.5313820625       -1.6526758319
 H        -5.4801031522       -0.7402453804       -1.8950531571
 H        -5.5150296890       -1.4349885551        0.3973381112
 H        -7.2214639344       -1.4017688035        0.4985419740
 H       -10.2601600615       -0.0652574126        2.3694701692
 H        -9.1401492380       -1.0709851354        1.5894510892
 H       -10.1988867302       -0.7481510165       -0.3140927210
 H        -9.7723299702        0.9794527585       -0.4566569023
 H       -14.2769841937        2.6148175279        0.9074703338
 H       -13.9591963016        4.2513661635        0.3164688176
 H       -11.9268665782        2.7344818712        1.9361907713
 H       -13.2278963044        3.4836611133        2.7904934303
 H        -7.5766039749        4.6205544848        2.5752866418
 H        -8.2284374418        6.1581178008        3.2004462492
 H        -7.4863088379        5.8368977580        0.3328606362
 H        -6.2023375415        6.1284116566        1.4544938834
 H        -9.9784966562       10.6201029353       -0.5160114634
 H       -10.0635699964       10.0911864239        1.2064784438
 H       -12.3568107621       10.0380211328        0.5256219472
 H       -11.9098376263        8.3610192389        0.1648511576
 H       -14.0454048254        8.4769680652       -4.6912979354
 H       -12.7551229942        7.3563360555       -5.2451962614
 H       -12.3538722071        8.9616756655       -4.7191623832
 H       -14.4025775009        9.0085058317       -0.0182150262
 H       -13.5706990635        7.4856820169       -0.3341255977
 H       -15.1446045991        7.7356287599       -1.0993104693
 H       -14.7031908769       10.6534500400       -1.9120815542
 H       -15.3436132088        9.4269033435       -3.1212860221
 H       -13.9260943848       10.4391856421       -3.4155530331
 H        -7.4111135868       10.2453568754       -1.2103956015
 H        -6.0320654113        9.6099199816       -0.1813687495
 H        -7.3650638477       10.5414444924        0.5254036688
 H        -8.0287085195        6.7235231912       -1.3674754427
 H        -6.2790355976        7.4362571683       -1.1783526376
 H        -7.5367415867        8.0973220660       -2.2127705776
 H       -11.9496972407        6.8124322731        3.5944803460
 H       -11.0428195452        7.2095508408        2.2446907816
 H       -10.1892159631        7.0437392770        3.8531204352
 H       -10.3810852490        3.3083139239        3.5147868175
 H       -11.2732700018        4.4530303315        4.6273794121
 H        -9.5407802721        4.4941475232        4.3747854452
 H       -12.3880901198        1.4809922226       -2.9343917916
 H       -11.4955214697        0.0905223453       -2.4788634098
 H       -10.7437085473        1.6015639225       -2.1553724331
 H       -14.2942664069        0.7991573303       -1.8867409672
 H       -14.5123009311        1.0069229067       -0.0847099404
 H       -13.7452896134       -0.4858337896       -0.7840746618
 H        -6.0076105857       -1.1273396440        3.2102440683
 H        -7.5026669218       -1.4643277996        2.5988691990
 H        -7.2857777551       -0.5620824236        4.1601062692
 H        -5.3726219949        1.4987560159        3.4614669432
 H        -7.0355165388        1.8825756793        3.9945458866
 H        -6.4104982809        2.7032748918        2.5377004774
 H        -6.4123275278       -4.5612600222       -2.5273585195
 H        -5.8943587965       -3.6831069990       -1.1403026412
 H        -5.5736812167       -3.1019676328       -2.7430784387
 H        -8.8079524959       -4.1479537379       -3.5719560345
 H        -7.6525527572       -2.9772973606       -4.3623650540
 H        -9.2481516489       -2.4753698676       -3.7601324826
 Na      -11.5314666748        5.9019814664       -0.7593157484
