117

 C        -9.2856591193       -4.7502510742       -1.0242822635
 C        -8.8482451965       -3.3064437488       -1.0853704425
 O        -9.2515787026       -2.5431070992       -0.2202871888
 C        -7.9585019788       -2.7422475071       -2.2276720781
 C        -7.7586860958       -1.1301490837       -2.0555147996
 O        -8.6026293402       -0.4008520827       -2.5559854011
 C        -6.4970053737       -0.4536991887       -1.4262897615
 C        -6.3991092329       -0.8339715038        0.0593705807
 C        -6.2264455205        0.3760278048        0.9747798099
 O        -5.6003787640        1.3146261502        0.6001711527
 C        -7.0788852628        0.5417167277        2.3516236702
 C        -8.5281128107        1.0193706517        2.0024270674
 O        -8.8932691014        2.1661491827        2.0443360169
 C        -9.6450826089       -0.0510483446        1.5623356266
 C       -10.2300660400        0.3767629822        0.2643680052
 C       -11.7738479792        0.5988559877        0.3872285428
 O       -12.3548106290        0.4430431041        1.5224948318
 C       -12.6199192549        1.2411146867       -0.7401200870
 C       -12.7594920038        2.7728368472       -0.2404762865
 O       -12.2036657219        3.5917662487       -0.8626507340
 C       -13.3997919413        3.1318163585        1.1111650517
 C       -12.4479810642        3.6227996785        2.1525805721
 C       -11.9121067584        5.0935508101        1.9720527906
 O       -12.5119855307        6.0188188083        1.4243646312
 C       -10.5395964909        5.4830787458        2.7695218505
 C        -9.3892822242        5.5109104427        1.6903201682
 O        -9.6955340895        5.4337735359        0.4926954157
 C        -7.9619333406        5.5833274189        2.1982850518
 C        -7.0136701181        6.4459201178        1.3591760412
 C        -7.5960419854        7.8145643667        1.1475839656
 O        -8.0053306274        8.3588305810        2.1671693499
 C        -7.8613357853        8.5210699870       -0.2542891306
 C        -9.4564951174        8.4570095377       -0.4011610951
 O        -9.9690202425        7.4885839829       -0.9166199147
 C       -10.1451186077        9.7959375549        0.0214823619
 C       -11.7122485083        9.8336216986       -0.2831476350
 C       -12.0535627269        9.5126402803       -1.6964215379
 O       -11.4088035909        9.9149901920       -2.6214710719
 C       -13.2780704877        8.5810864288       -2.2459440211
 C       -12.7345022412        7.5262809718       -3.3126766820
 O       -12.4252013575        6.4148222562       -2.9638868874
 C       -12.4988490332        7.9453306993       -4.7445291094
 C       -13.9366505290        7.7990546846       -1.1028998076
 C       -14.2583716791        9.5397321203       -2.9695634598
 C        -7.3365977938        9.9326429553       -0.0951765419
 C        -7.1483677898        7.8226706612       -1.4975749954
 C       -10.6862796006        6.9138891602        3.4367316224
 C       -10.2756484262        4.4621588445        3.8739812405
 C       -11.9938664539        1.1395987106       -2.1682138350
 C       -14.0693385862        0.5389020024       -0.6869597168
 C        -7.0077010386       -0.8064722194        3.0883637690
 C        -6.3205848377        1.6545482764        3.2351047770
 C        -6.5589676150       -3.4308126236       -2.0557233780
 C        -8.4752737442       -3.1451896227       -3.6800597389
 H        -8.4186315410       -5.4314247098       -1.2517869633
 H       -10.1083075755       -4.9854347897       -1.6201490340
 H        -9.6434028901       -4.9576386812       -0.0126964574
 H        -6.7024349705        0.5969434294       -1.6705628208
 H        -5.5329934829       -0.7387683394       -1.9601227836
 H        -5.5309452792       -1.5372026629        0.3065064853
 H        -7.2863020197       -1.4037824818        0.4749411917
 H       -10.3310842243       -0.1458092460        2.4340648391
 H        -9.1056430319       -1.0109670793        1.5452466482
 H       -10.1174473648       -0.3492098317       -0.5107534116
 H        -9.7929740582        1.3388898824       -0.0808347868
 H       -13.9518250794        2.2547263948        1.5234883365
 H       -14.0907546961        3.9508983700        0.8827996943
 H       -11.5745449086        2.9703050644        2.2951304140
 H       -12.9999734168        3.6222874185        3.1545104281
 H        -7.6102875569        4.4979503407        2.0966502958
 H        -7.9750905558        5.8609377648        3.2337712043
 H        -6.7980220097        5.9912683812        0.4511770131
 H        -6.0160325307        6.5720481667        1.8576937327
 H        -9.7305463896       10.5886730797       -0.5527208992
 H        -9.9790270521        9.9000698902        1.0732899022
 H       -12.0794869319       10.8307032765       -0.1210675597
 H       -12.3305614078        9.2011623377        0.3332553443
 H       -13.2969974525        7.4921834421       -5.3816713337
 H       -11.4838749604        7.6586291751       -5.0712559284
 H       -12.4651051087        9.0390583967       -4.7596663387
 H       -14.3040524693        8.4209766621       -0.2960979531
 H       -13.1777113268        7.0690202814       -0.7575660045
 H       -14.7820391631        7.2797128870       -1.5333834392
 H       -14.5903385143       10.3127938545       -2.3043608242
 H       -15.1716730633        8.9479679920       -3.4206084969
 H       -13.6154454587       10.0628907631       -3.6693120526
 H        -7.6298843342       10.5903615364       -0.9440935537
 H        -6.2286470951        9.9436355128       -0.1117526424
 H        -7.6711749260       10.2993806461        0.7770761908
 H        -7.8106219780        7.0681666829       -1.9040495765
 H        -6.1697467196        7.4655103760       -1.1478281227
 H        -6.8908876655        8.5849967355       -2.2527149757
 H       -11.1471990304        6.8104698667        4.4125740978
 H       -11.3423796877        7.5083456843        2.7906120926
 H        -9.6551576389        7.4063397636        3.4039629463
 H        -9.7898367341        3.5948042409        3.4957286609
 H       -11.1903749246        4.2547841908        4.5116659354
 H        -9.6847440913        4.7423438230        4.6926922801
 H       -12.7578296006        1.4736922009       -2.9621297714
 H       -11.9594254120        0.0677577484       -2.4185878040
 H       -11.0526276213        1.6267731837       -2.3359379216
 H       -14.7478348733        1.2534292037       -1.1077408968
 H       -14.3419775116        0.3420162695        0.4145624838
 H       -13.9302781702       -0.3517644761       -1.1916211716
 H        -5.9902175581       -0.9568661687        3.5210858136
 H        -7.1009021554       -1.6377345601        2.4098298558
 H        -7.7438654572       -0.9352277566        3.9559304841
 H        -5.5283184166        2.0690552953        2.5939280942
 H        -5.9074962258        1.2352643639        4.1221213821
 H        -7.0441882189        2.3954865915        3.5352023843
 H        -6.6917797831       -4.5305483093       -2.1338291075
 H        -6.0814101787       -3.2942012553       -1.1150224428
 H        -5.8061992576       -3.2242020019       -2.8135294629
 H        -8.4932661573       -4.2110084497       -3.8465324813
 H        -7.9293010835       -2.6064611968       -4.4273982642
 H        -9.4715998715       -2.8500766715       -3.7841862051
 Na      -11.4432249439        5.6737045146       -1.0179127010
