117

 C        -9.2827449138       -4.7836323813       -1.1366845052
 C        -8.9185496996       -3.2847224063       -1.1052402140
 O        -9.3599641460       -2.5282276052       -0.2886092299
 C        -7.9263981214       -2.6880108336       -2.1893427378
 C        -7.8716685771       -1.1358384896       -2.1155926094
 O        -8.7302822635       -0.4148288833       -2.5964438001
 C        -6.6134287119       -0.5913059307       -1.3874028693
 C        -6.4598839201       -0.8451117053        0.1248700257
 C        -6.3466193160        0.4739916757        0.9263949703
 O        -5.5408632247        1.3409327209        0.5806709206
 C        -7.0709890067        0.5137630647        2.3302734895
 C        -8.5076727170        1.0209321679        2.1192156695
 O        -8.8058144940        2.2031021366        2.1747130715
 C        -9.6622641410        0.0297810099        1.6194925898
 C       -10.2644231472        0.4384313777        0.3058650866
 C       -11.8087894013        0.5458664867        0.4582584456
 O       -12.2853465694        0.3437253536        1.5435746246
 C       -12.7195281471        1.2108478649       -0.6247830698
 C       -12.7225360197        2.7304414934       -0.1968642301
 O       -12.1857061791        3.5714542169       -0.8827605188
 C       -13.3746988929        3.1603167174        1.1795891312
 C       -12.3572471374        3.7298181646        2.2071673107
 C       -11.8512975543        5.1569088957        2.1324714866
 O       -12.3770820416        5.9868411574        1.4027446377
 C       -10.5483107333        5.5008196048        2.8891186233
 C        -9.3920103561        5.5165341134        1.6778909975
 O        -9.6061803320        5.4133358395        0.4988706527
 C        -7.9316268996        5.5632149622        2.1150793775
 C        -7.1318809266        6.3934918995        1.1658821776
 C        -7.7446106747        7.8463006444        1.1943309420
 O        -8.2339394131        8.3836820260        2.2017574140
 C        -7.8947336807        8.5987607368       -0.1616561542
 C        -9.3892991379        8.5424917599       -0.5129707933
 O        -9.9703718876        7.6150086204       -1.0471437920
 C       -10.1872990074        9.7804919213       -0.1228666919
 C       -11.7256141271        9.6379021247       -0.3508524192
 C       -11.8967811284        9.3713222031       -1.8582801283
 O       -11.1763484889        9.9181207412       -2.6707624454
 C       -13.1643606173        8.4676479776       -2.3682378768
 C       -12.5559985781        7.4842160754       -3.3453652407
 O       -12.2553069411        6.3424251994       -3.0280690426
 C       -12.3141815946        7.9328516818       -4.7588508405
 C       -13.9296020109        7.8241853271       -1.1016687261
 C       -14.3172039391        9.3522764903       -3.0481690067
 C        -7.3219143226       10.0265169702       -0.1493750808
 C        -7.1838344823        7.8494746702       -1.3892238383
 C       -10.7413664403        6.9562739405        3.4154009856
 C       -10.0893513961        4.5297527070        3.9157460884
 C       -12.0946087150        1.1868432005       -1.9826001896
 C       -14.1800442572        0.6040021581       -0.6265797015
 C        -7.0819619211       -0.8774550593        3.0813160349
 C        -6.3899431258        1.5985192126        3.2354600662
 C        -6.5416681318       -3.4952722946       -2.0323188451
 C        -8.5007388688       -2.9712777973       -3.6015392363
 H        -8.3962029035       -5.4094972125       -1.2540421127
 H       -10.1020712552       -5.0355266606       -1.8577768962
 H        -9.8158450577       -5.0291540930       -0.2150033908
 H        -6.5882112945        0.5231303520       -1.6481859869
 H        -5.7113339085       -1.0444025507       -1.8514024093
 H        -5.5124932336       -1.4257803132        0.3954842005
 H        -7.2319112725       -1.4092848162        0.6310588383
 H       -10.3619105634       -0.0197245547        2.4650794698
 H        -9.2083755034       -0.9422434340        1.5924574065
 H       -10.0500625854       -0.2439811594       -0.4826655405
 H        -9.9466044219        1.4578658428       -0.0358297834
 H       -13.8767690094        2.3385248168        1.6665301122
 H       -14.0941969178        3.9465304516        0.8859178123
 H       -11.4198575978        3.1968764443        2.1032343293
 H       -12.6943765466        3.4757488995        3.2422170358
 H        -7.5980443033        4.5181404953        2.1406813731
 H        -7.8501142973        5.9824188482        3.1062510147
 H        -7.0734291248        5.9725437083        0.1971103913
 H        -6.1206842893        6.4841898893        1.4646413822
 H        -9.9657106597       10.5958903531       -0.7515694976
 H        -9.9678069088        9.9547939908        0.9286578492
 H       -12.2340722725       10.5730005356       -0.1832757907
 H       -12.2709470666        8.8746545750        0.2568268891
 H       -13.1381776517        7.5140438324       -5.2853257283
 H       -11.3685573989        7.6120739051       -5.1802573170
 H       -12.3013714978        9.0583280368       -4.7442259166
 H       -14.4595810604        8.6637332482       -0.5112599180
 H       -13.3039128197        7.2241064633       -0.5045140134
 H       -14.7376902416        7.2356869641       -1.5084801802
 H       -14.7637953584        9.9217354410       -2.1822736031
 H       -15.0664729922        8.6511849333       -3.3791786638
 H       -13.9664947960       10.0617177700       -3.7883228925
 H        -7.5956242600       10.5559456634       -1.0191882492
 H        -6.2742434953        9.9412532359       -0.2442271954
 H        -7.5860800206       10.5844353771        0.8174349244
 H        -7.6587005216        6.8286293015       -1.4845988819
 H        -6.1271814743        7.7865537776       -1.1356499518
 H        -7.2539142510        8.4115929418       -2.2292645048
 H       -11.2788305966        6.8926959103        4.4133474935
 H       -11.3522420501        7.5170234540        2.6908719198
 H        -9.7548259557        7.4461575196        3.4283440436
 H        -9.7122996918        3.5999885368        3.5630168635
 H       -10.7181268993        4.4378799730        4.7904171083
 H        -9.2388201949        4.9388829932        4.4662369379
 H       -12.8557585809        1.5032438841       -2.7312075689
 H       -11.8857556399        0.1726681953       -2.3036733374
 H       -11.2418641928        1.8679761376       -2.1147648802
 H       -14.8712245471        1.4114762142       -0.8449827819
 H       -14.3711755788        0.1667193033        0.3491446606
 H       -14.0622486265       -0.1925577561       -1.3650535906
 H        -6.1516080498       -1.1621540998        3.5220243831
 H        -7.3901775046       -1.7461909293        2.4400518142
 H        -7.8649035401       -0.7983776912        3.9301984047
 H        -5.7556918580        2.2148259783        2.5812793085
 H        -5.7774702489        1.0598309752        3.9120139591
 H        -7.1046554630        2.1292580729        3.8274380528
 H        -6.6975575676       -4.5481196913       -1.7466012785
 H        -5.8622961003       -3.1146047681       -1.2943750068
 H        -5.9512267990       -3.5506003239       -2.9461310924
 H        -8.5714827590       -4.0213453097       -3.8890035054
 H        -7.9551237358       -2.4208389270       -4.3134396252
 H        -9.4805682314       -2.5797094742       -3.6354199329
 Na      -11.4923860131        5.6853913217       -1.0148042784
