117

 C        -9.2999213904       -4.7082820108       -1.2381050411
 C        -8.9893779099       -3.2716173977       -1.1303026179
 O        -9.4736890148       -2.5166775321       -0.3047889702
 C        -7.9576596911       -2.7503425897       -2.2120741662
 C        -7.8338706968       -1.1990473447       -2.0255671539
 O        -8.7290463144       -0.5576347225       -2.5044495027
 C        -6.6222633565       -0.4948653591       -1.4142178180
 C        -6.5917366909       -0.8851945947        0.0562073935
 C        -6.3250824442        0.4301425635        1.0347556724
 O        -5.6572750699        1.3386828244        0.5949812676
 C        -7.0684924121        0.5101764250        2.3867520136
 C        -8.4911814187        1.0545704845        2.0467214945
 O        -8.7381627099        2.2327654612        2.2950772329
 C        -9.6037365115        0.0667744142        1.6074595467
 C       -10.3439130159        0.5194052236        0.3562229844
 C       -11.8620685166        0.6130493881        0.6750809000
 O       -12.3473135621        0.1737654592        1.6338680798
 C       -12.7718505960        1.2580195616       -0.5231827552
 C       -12.7427426234        2.7667006725       -0.0763469968
 O       -12.1604707068        3.5253809282       -0.9316371559
 C       -13.3620343619        3.2443170593        1.2473556675
 C       -12.2152591900        3.6074456031        2.2351085706
 C       -11.7490653162        5.1182173353        2.0723797735
 O       -12.3478983620        5.8887289652        1.3370216200
 C       -10.4546693433        5.5598312698        2.8403195034
 C        -9.4201602340        5.4523907750        1.7511022374
 O        -9.6664064463        5.3870574850        0.5671798145
 C        -7.8897992026        5.5318781757        2.1996253381
 C        -7.2735405150        6.4672001635        1.1576904180
 C        -7.8662315752        7.8916246226        1.1113321785
 O        -8.3299704117        8.3357576875        2.1186597728
 C        -7.9040949718        8.6556622073       -0.2555332776
 C        -9.4194938253        8.6853122545       -0.5997063877
 O        -9.8947043383        7.7172769885       -1.1735536526
 C       -10.2959504327        9.9023144692       -0.1284438644
 C       -11.6808044388        9.4967746054       -0.4440653530
 C       -11.9575145552        9.3828255890       -2.0030453707
 O       -11.0892114841        9.8269185049       -2.7584811066
 C       -13.1549340557        8.4451739878       -2.3737428817
 C       -12.4708159555        7.4083011893       -3.3725161830
 O       -12.0811617369        6.2783294331       -3.0604274023
 C       -12.1603674768        7.9383445839       -4.8411690743
 C       -13.8425422247        7.7653484401       -1.1842545492
 C       -14.2262876063        9.2482226349       -3.1273041542
 C        -7.3098239212       10.0856843277       -0.1241234753
 C        -7.1585994757        7.8362953453       -1.3698087899
 C       -10.6828908753        7.0033606069        3.3887055294
 C        -9.9736468840        4.6337279387        3.9876389326
 C       -12.1517857146        1.1527648915       -1.9664098699
 C       -14.1738163816        0.7167553788       -0.4988235395
 C        -7.1594546126       -0.8218235996        3.0658874488
 C        -6.3849927519        1.5451304743        3.2912151994
 C        -6.6237318660       -3.4431180892       -2.0860839490
 C        -8.5661932396       -2.9649023550       -3.6235713897
 H        -8.4114496472       -5.2874060250       -1.3238150757
 H       -10.0200515410       -4.7971864139       -2.1263473222
 H       -10.0278706644       -5.0617950542       -0.4846188441
 H        -6.6364650594        0.6086149208       -1.5819080346
 H        -5.7330524819       -0.9248145657       -1.8616016929
 H        -5.8444941453       -1.6070270999        0.2719655509
 H        -7.4915714742       -1.3278530854        0.4107481711
 H       -10.2396385368        0.0991314229        2.4739094521
 H        -9.1980284371       -0.9237686339        1.6044661196
 H       -10.2812373903       -0.2236564533       -0.4854463862
 H       -10.0875275792        1.4741442125       -0.0868172598
 H       -13.9154418486        2.4092081829        1.6552008063
 H       -13.9904803360        4.1252409758        1.0984468055
 H       -11.3582354726        2.9225763572        2.2724513790
 H       -12.6514061640        3.5475929378        3.1982800510
 H        -7.4158991729        4.5974667725        2.1741255728
 H        -7.8243269108        5.9198777379        3.2427534543
 H        -7.4393535172        5.9174295604        0.1827122299
 H        -6.2240030531        6.5765860352        1.1478425430
 H       -10.0634236002       10.8070267342       -0.7474960310
 H       -10.2073083180       10.0245193465        0.9682621557
 H       -12.5141106438       10.0497090376        0.0605233973
 H       -11.7596285430        8.4696656011       -0.0481053720
 H       -13.0009372547        7.7033299070       -5.4752203235
 H       -11.3101055031        7.3652758925       -5.2000832314
 H       -11.8503680584        8.9530028007       -4.8305201934
 H       -14.3961792105        8.5033183337       -0.6184118054
 H       -13.1321497616        7.1903438055       -0.5971381538
 H       -14.6094981888        7.0908262450       -1.6117005657
 H       -14.8468651553        9.8056925102       -2.4154115813
 H       -14.7994494454        8.5091487533       -3.5328003457
 H       -13.7731498928        9.9102836125       -3.8759714942
 H        -7.4578515956       10.6964800820       -1.0055860287
 H        -6.2365680080       10.0470614942       -0.0112426822
 H        -7.7805964431       10.4985177168        0.8258296931
 H        -7.4631797623        6.8084030752       -1.3030325992
 H        -6.1028385292        7.9027826862       -1.1697205624
 H        -7.3328623120        8.3046345407       -2.3577275654
 H       -11.3326187923        6.7332014045        4.2317329487
 H       -11.1306635003        7.7709337985        2.7242500536
 H        -9.7419405078        7.3739391167        3.7012747859
 H        -9.7427001411        3.5778089532        3.7633681497
 H       -10.5617270823        4.6950476998        4.8345750740
 H        -9.0251006848        4.9712129030        4.4660415784
 H       -12.7587309621        1.5594290575       -2.7176043820
 H       -11.9876883740        0.1208069949       -2.2595274320
 H       -11.2246533027        1.7701594456       -2.0407006762
 H       -14.8735558492        1.5419455815       -0.6651578900
 H       -14.3104843986        0.2784570885        0.4267129975
 H       -14.1226712190       -0.0978437297       -1.2684316220
 H        -6.1617567874       -1.2673132653        3.2229157992
 H        -7.7223956525       -1.5731321335        2.4446795139
 H        -7.6712068027       -0.7444944842        3.9652678772
 H        -6.1434888907        2.3687665194        2.6616203665
 H        -5.4599619631        1.0464466982        3.6366719574
 H        -6.9653253065        1.7511512298        4.1893479253
 H        -6.5252250541       -4.4637086096       -1.7844387982
 H        -6.0530758503       -2.8275810605       -1.3557407170
 H        -6.0285665505       -3.3030091098       -2.9793385721
 H        -8.7382429549       -3.9815156419       -3.9017105155
 H        -7.8970548780       -2.5261668936       -4.3633229534
 H        -9.5307148259       -2.3995936711       -3.7118765098
 Na      -11.5079989651        5.7569069300       -0.8968817940
