117

 C        -9.5489601081       -4.7036332696       -1.3076802351
 C        -9.0025734497       -3.2823656830       -1.2555263771
 O        -9.4650017777       -2.5413149326       -0.4349334146
 C        -7.9990769814       -2.7494856627       -2.2785111198
 C        -7.9840830329       -1.1150858204       -2.0202838732
 O        -8.9129850241       -0.3814072676       -2.3248166676
 C        -6.6857471760       -0.4973380912       -1.3791266721
 C        -6.7037339949       -0.8195156703        0.1353419606
 C        -6.4954912995        0.4001163698        1.0170533124
 O        -5.7973793626        1.3305660111        0.6092395369
 C        -7.1300565105        0.4921897506        2.5156281979
 C        -8.5133383115        1.0593251519        2.2370823554
 O        -8.7350797323        2.2516014659        2.2732166248
 C        -9.6615331629        0.0708103141        1.7336216722
 C       -10.4072862948        0.7015929086        0.5631392528
 C       -11.9546331506        0.6150842141        0.6982232871
 O       -12.4592837443        0.0315646334        1.6649691988
 C       -12.8276363537        1.3537623886       -0.3748402536
 C       -12.7004857426        2.8493750987       -0.1217861150
 O       -12.1759458135        3.6043152901       -0.8448169811
 C       -13.3101529882        3.2344439911        1.3604780509
 C       -12.1662883278        3.5228388214        2.3713940372
 C       -11.7122467222        4.9486208834        2.2386187516
 O       -12.3120041212        5.7332107792        1.4914763251
 C       -10.4526792737        5.4618735545        3.0035958907
 C        -9.2320694048        5.3907574456        1.7814564761
 O        -9.5624080959        5.2910729784        0.6145067067
 C        -7.8156494416        5.7486620234        2.1898332281
 C        -7.1259718248        6.5867203981        1.1232980580
 C        -7.7599612894        7.9353515932        0.9099204671
 O        -8.4613694268        8.3642770278        1.8385917048
 C        -7.8610953177        8.7656561969       -0.4193406914
 C        -9.3903849044        8.6958130156       -0.7293213478
 O        -9.8385181816        7.7806177861       -1.3915825268
 C       -10.2696420673        9.8244304873       -0.2194976435
 C       -11.7788588928        9.5924103300       -0.5348108215
 C       -11.9698277548        9.2903340510       -1.9720896488
 O       -11.3206117712        9.8763716986       -2.8175703917
 C       -13.0998575180        8.2781171182       -2.5968728254
 C       -12.2570663207        7.2374509115       -3.5521481368
 O       -11.7934310774        6.2541005000       -3.0009470134
 C       -11.9176269473        7.6590061418       -4.9557013578
 C       -14.0173884442        7.4999161875       -1.5681914421
 C       -13.9891008439        9.2555310953       -3.4956580431
 C        -7.2163581756       10.1592510453        0.0303305620
 C        -7.0074213060        8.1915363602       -1.5850655208
 C       -10.6406802026        7.0213806271        3.2780412839
 C       -10.2125539757        4.6548612670        4.2172072925
 C       -12.3007751083        0.9270510108       -1.7717566121
 C       -14.3376638133        0.8936501657       -0.1836614129
 C        -7.1267000615       -0.8875486058        3.1793728940
 C        -6.1831496242        1.4429519556        3.3268811792
 C        -6.6459213900       -3.4738613387       -2.1710172475
 C        -8.5912667336       -3.0569403322       -3.7359243846
 H        -8.7042765247       -5.4054833070       -1.2414323337
 H       -10.2224108815       -4.8937350905       -2.0783397862
 H       -10.2619208403       -4.8390320726       -0.5428028556
 H        -6.6441086097        0.5726874835       -1.4659742735
 H        -5.8121634380       -0.9944752908       -1.7811265493
 H        -5.7978790279       -1.3746229925        0.4924164820
 H        -7.5611668482       -1.3691150337        0.5550833415
 H       -10.3388740727       -0.0292833044        2.6065579201
 H        -9.2524862929       -0.9223022993        1.5454464571
 H       -10.1003293827        0.1941208832       -0.3277716045
 H       -10.3409270048        1.7812054985        0.3395758501
 H       -13.9556035038        2.4770968804        1.8167526430
 H       -13.8495608605        4.1665511121        1.1430003671
 H       -11.2461674529        3.0314053939        2.0516487931
 H       -12.3071580707        3.1634754710        3.4362216587
 H        -7.1905741510        4.7922717139        2.3384307813
 H        -7.8476668183        6.1828403446        3.1702885113
 H        -7.0495018681        6.0617681510        0.1884688995
 H        -6.0140241628        6.6968999532        1.4059173519
 H        -9.8497888214       10.6616741172       -0.7731239484
 H       -10.1186395729        9.8548274216        0.8725688072
 H       -12.4731069849       10.3991723776       -0.4106075400
 H       -12.1439650613        8.7802342054        0.1062623748
 H       -12.7505887595        8.1862840546       -5.3983887006
 H       -11.6343943068        6.8482746872       -5.6091854859
 H       -11.0401393511        8.3145755056       -4.6964350925
 H       -14.5908198556        8.2686691491       -1.0047415195
 H       -13.4896196829        6.8268712459       -0.9581993193
 H       -14.7577081568        6.9640643243       -2.1116206802
 H       -14.5009789178        9.8629439649       -2.7575926657
 H       -14.7708102518        8.6407598682       -4.0172646759
 H       -13.3740597265        9.8287922972       -4.1461852652
 H        -7.0305497315       10.7925781152       -0.8347324694
 H        -6.2048915352        9.9300247786        0.4019688751
 H        -7.7721162814       10.6194842469        0.8717513050
 H        -7.6687795329        7.4201396149       -2.0930149519
 H        -6.1431928486        7.5671932780       -1.2226157883
 H        -6.7107758580        8.9937396333       -2.2031263921
 H       -11.5863656999        7.2245361970        3.7412864329
 H       -10.5339368172        7.4873215617        2.3524078629
 H        -9.7957488144        7.4164338366        3.8351919099
 H        -9.8672043963        3.6514503710        4.0366448735
 H       -11.1474929087        4.5101703140        4.8703185403
 H        -9.4730647282        5.0295422471        4.8987180687
 H       -12.8188558257        1.4811508187       -2.5955137443
 H       -12.4819737147       -0.1304269862       -1.8533057985
 H       -11.3119662236        1.1752414480       -2.0288823418
 H       -14.9407592057        1.5979672222       -0.7275566178
 H       -14.5235540458        0.9780348059        0.9211746411
 H       -14.4404160519       -0.1154991916       -0.4748139386
 H        -6.1401533535       -1.2276364217        3.0871675179
 H        -7.7953940005       -1.5785351176        2.7431294156
 H        -7.5075629892       -0.8895116742        4.2497237469
 H        -6.5812972695        2.4925033376        3.2996807362
 H        -5.1705091777        1.3787417171        2.9676800009
 H        -6.1534257505        0.9865968900        4.3088204750
 H        -6.7083043933       -4.4372265537       -2.7303072277
 H        -6.2847859809       -3.7006469382       -1.1906684340
 H        -5.8665018629       -2.8627937809       -2.6667453054
 H        -8.6939658531       -4.1692175563       -3.9460782974
 H        -7.8104151872       -2.7461176686       -4.4615509000
 H        -9.5064613589       -2.5499568484       -3.9942807000
 Na      -11.3222548880        5.9277306803       -0.7027158492
