117

 C        -9.5818788111       -4.7255896035       -1.3236607243
 C        -9.1351390488       -3.2434727406       -1.2723712298
 O        -9.3964402950       -2.4808420473       -0.3715274224
 C        -8.0750409204       -2.7073482429       -2.4176408603
 C        -8.0071602883       -1.1994244700       -2.0455042400
 O        -8.9493293378       -0.4825875694       -2.2926817194
 C        -6.7813218903       -0.6201339067       -1.3558111188
 C        -6.7462380436       -0.9454879369        0.1718659051
 C        -6.4820615191        0.4097517988        1.0547646228
 O        -5.8931873245        1.4047075631        0.6403749170
 C        -7.0565442924        0.4472903469        2.5116212175
 C        -8.5280578913        1.0405754327        2.3108827506
 O        -8.7363447311        2.2378870240        2.3122225798
 C        -9.7619993103        0.1268733479        1.8913983013
 C       -10.3831871501        0.7751339660        0.7002232939
 C       -11.9967556210        0.6087483543        0.7779688200
 O       -12.4451441067       -0.0022815130        1.6643329960
 C       -12.8826702477        1.2858845523       -0.3085728119
 C       -12.7577600508        2.8003516739        0.0124247294
 O       -12.1875412634        3.5793634039       -0.7590027513
 C       -13.2396104263        3.2385914243        1.3684095702
 C       -12.1413366065        3.5230586893        2.3390641001
 C       -11.6780957186        4.9809699429        2.1931177035
 O       -12.3706862077        5.8153397847        1.5982068868
 C       -10.3551532001        5.4387033153        2.9071826235
 C        -9.1843197843        5.4435120298        1.8886342915
 O        -9.4437379608        5.2363792478        0.7249752123
 C        -7.7540372390        5.7919806924        2.2975076827
 C        -7.0665933581        6.5601952799        1.0850982959
 C        -7.8549382025        7.9085496309        0.8786701358
 O        -8.4813335585        8.4052300101        1.7949242986
 C        -7.7913391282        8.7853972432       -0.4792561473
 C        -9.3171725580        8.7394014554       -0.8623661259
 O        -9.7090080923        7.7269367858       -1.4076023170
 C       -10.3076106665        9.8249350555       -0.2680032585
 C       -11.8587312867        9.5527732365       -0.5306449132
 C       -12.0113239787        9.3587147179       -2.0511643804
 O       -11.3586288562        9.9828440172       -2.8751471759
 C       -13.0753967035        8.2798418840       -2.6927079019
 C       -12.1530703642        7.2361007797       -3.5029784657
 O       -11.6732479043        6.1968108832       -3.0083811258
 C       -11.8317848821        7.4501551917       -4.9284063130
 C       -14.1034870570        7.5461842630       -1.8365833223
 C       -13.8963863568        9.1653315416       -3.6154747250
 C        -7.2798598051       10.1915118460       -0.0233255815
 C        -6.9042682505        8.3110137793       -1.6676458383
 C       -10.6385387275        6.9406891412        3.2440459100
 C       -10.1562506729        4.6824830728        4.2543743975
 C       -12.5073337772        0.9198589491       -1.7685211265
 C       -14.3954781266        0.9102094159       -0.1590224288
 C        -7.0680869932       -0.9430865360        3.1696105626
 C        -6.2161795245        1.4494398766        3.3091174640
 C        -6.7476953565       -3.3801322261       -2.1598124660
 C        -8.5567390410       -2.9034188875       -3.8381308865
 H        -8.7174985475       -5.2854223278       -1.4147843208
 H       -10.3001366658       -4.8490107799       -2.1615559846
 H       -10.2654926871       -5.0788754075       -0.5938205768
 H        -6.7510269032        0.5053637842       -1.4036667300
 H        -5.9083072333       -1.1097686223       -1.7812331441
 H        -5.8413358359       -1.6116010895        0.4811055982
 H        -7.6512195123       -1.4070926149        0.6217915388
 H       -10.4949020541        0.1375360364        2.7411833188
 H        -9.4353973558       -0.8987246620        1.7466496232
 H        -9.9838374346        0.3149178563       -0.1655847896
 H       -10.2976577198        1.8515919854        0.5418914865
 H       -13.7813599259        2.4185915722        1.8180255154
 H       -13.8655582539        4.1545359291        1.2543945343
 H       -11.3439054157        2.7648453536        2.3831190115
 H       -12.6071212720        3.4836226479        3.3805120594
 H        -7.2475946816        4.8343673528        2.5097279400
 H        -7.6567026897        6.3389777294        3.2575019075
 H        -6.8673039584        6.0126960688        0.1640752436
 H        -6.0983143277        6.8219141363        1.4026439925
 H       -10.0584356978       10.7327460586       -0.7193860887
 H       -10.1080485593        9.7838009809        0.7906807163
 H       -12.4808907929       10.4166573747       -0.3397673220
 H       -12.3181729361        8.7445375354        0.0559331384
 H       -12.6475628799        7.9047881805       -5.4656133773
 H       -11.8036421153        6.4348328278       -5.3533458745
 H       -10.8086248679        7.9409871316       -4.9823957970
 H       -14.8284582210        8.2239634875       -1.3146246907
 H       -13.6247165823        6.8252095867       -1.2161395592
 H       -14.6891561616        6.9831435191       -2.5291141358
 H       -14.4505243576        9.7497102622       -2.7920916462
 H       -14.5861930135        8.6353315335       -4.1965252741
 H       -13.2086062160        9.8211427963       -4.1977685691
 H        -7.3320023939       10.7831831581       -0.8861941001
 H        -6.2690598879       10.1391723892        0.2878929587
 H        -7.8869004321       10.6113487664        0.8788733548
 H        -7.5842671889        7.6571533186       -2.2826564568
 H        -6.1054911487        7.6133268379       -1.3886627480
 H        -6.5836440907        9.1731215452       -2.2039368545
 H       -11.6116080061        6.9796023018        3.8035061514
 H       -10.6431238564        7.5154685267        2.3203937594
 H        -9.8360980780        7.3523009248        3.8030358853
 H        -9.8039568286        3.6421684703        4.2057398358
 H       -11.0501000320        4.5711902328        4.8123728023
 H        -9.3833620524        5.1543693708        4.9156618202
 H       -13.1152566474        1.4429253484       -2.4881426997
 H       -12.4842675018       -0.1535794758       -1.9343633772
 H       -11.5294607539        1.3639499912       -2.0730420104
 H       -14.8931468232        1.5344422575       -0.9195257888
 H       -14.7081358360        1.1207188005        0.8153030338
 H       -14.5236447045       -0.2011243467       -0.3797061471
 H        -6.0704312614       -1.3293139680        3.2789506274
 H        -7.7777899615       -1.6516179978        2.6553299850
 H        -7.6242241572       -0.8568480506        4.1020315294
 H        -6.7936309446        2.3809605560        3.3682927521
 H        -5.2674504786        1.6069387591        2.8131651147
 H        -6.0056505823        0.9894217016        4.2584378864
 H        -6.7270712581       -4.3386079144       -2.6602426994
 H        -6.6338127755       -3.6234652258       -1.0921840891
 H        -5.8715032583       -2.8148220364       -2.4824819389
 H        -8.6009831894       -3.9707672650       -4.0601226875
 H        -7.8572454627       -2.5096418773       -4.5361498808
 H        -9.5332208517       -2.4573476438       -4.0103564740
 Na      -11.2211685826        5.9609782152       -0.6826555344
