117

 C        -9.8514024664       -4.5552502227       -1.6777611578
 C        -9.2281616295       -3.2938790532       -1.2905331849
 O        -9.4938158843       -2.7859576905       -0.2324448713
 C        -8.2275147687       -2.7014540111       -2.3407365335
 C        -8.0785802028       -1.0413098442       -2.0054250848
 O        -9.0231588722       -0.3158698989       -2.2756067591
 C        -6.7952327069       -0.5510713160       -1.3507769303
 C        -6.9582718988       -0.8055992027        0.2232036406
 C        -6.6641306244        0.4185002770        1.0745686722
 O        -6.0987295024        1.4032315160        0.5658580434
 C        -7.1910565840        0.4665111937        2.5582830081
 C        -8.6196385461        1.1018175448        2.4335941852
 O        -8.8237547109        2.2681308113        2.6375623572
 C        -9.8188119939        0.1822825035        2.0615459131
 C       -10.5093103909        0.6562658293        0.7850415134
 C       -12.1212047130        0.4696194844        0.8383538282
 O       -12.6286260755       -0.1380007825        1.7192925581
 C       -12.9905666847        1.3005869761       -0.1267975335
 C       -12.7988309091        2.8402760285        0.2950294757
 O       -12.1734502088        3.4521793850       -0.4648709883
 C       -13.2467619251        3.3401001430        1.6058840108
 C       -12.1304009749        3.7783921173        2.4938676627
 C       -11.5590394409        5.1595428726        2.2195772514
 O       -12.1156303887        5.9600475228        1.4736543358
 C       -10.2324795002        5.6662831748        2.9072632250
 C        -9.1458595656        5.6124486982        1.8174445779
 O        -9.4019626537        5.1481626989        0.7231695225
 C        -7.7116715479        5.9876685305        2.1412999727
 C        -7.0394440825        6.8447368847        1.0862999257
 C        -7.7984798783        8.1765307005        0.9397474541
 O        -8.4533018904        8.5641249757        1.9034284665
 C        -7.8331710335        8.9162323941       -0.4472753329
 C        -9.2475328085        8.6128274948       -0.9330894285
 O        -9.4307594182        7.5189330884       -1.4473720994
 C       -10.3930148184        9.5604882702       -0.4717444642
 C       -11.7753854415        8.9988382537       -0.9569892269
 C       -12.0123044849        9.3171112438       -2.4185406993
 O       -11.4712072006       10.2784329644       -2.9519829349
 C       -12.9444066741        8.3043846010       -3.1244219449
 C       -11.9183853672        7.0735456560       -3.5459151100
 O       -11.5943945026        6.2155545357       -2.7247687834
 C       -11.5348920850        6.8572858802       -5.0755944129
 C       -14.0528621307        7.8486905455       -2.1240513699
 C       -13.6194254986        8.9434580487       -4.3087995194
 C        -7.5587188387       10.3650565841       -0.2455490085
 C        -6.7972915544        8.2555508657       -1.4159535894
 C       -10.4141579780        7.0794593388        3.5417808147
 C        -9.7424356793        4.7921111066        4.0327455364
 C       -12.4452266257        1.0933977905       -1.5436801299
 C       -14.4743793373        0.7300038405       -0.0306202399
 C        -7.2290463131       -0.9971835634        3.1937517476
 C        -6.1487162664        1.2918757357        3.3192984312
 C        -6.7999526232       -3.3862143280       -2.2744940785
 C        -8.7813038708       -2.7763154088       -3.7724070139
 H        -9.0573451623       -5.2372376331       -1.9958345883
 H       -10.6760629660       -4.4786089007       -2.4122655721
 H       -10.4022225357       -5.0095611055       -0.8487440398
 H        -6.8459469788        0.4907253041       -1.5296524971
 H        -5.9072727912       -0.9843505226       -1.7470924542
 H        -6.3150530539       -1.6276853936        0.5410778470
 H        -7.9674602203       -1.1249569002        0.4122705577
 H       -10.4586701862        0.2109761765        2.9493116571
 H        -9.3676499096       -0.7829695260        2.0089849877
 H       -10.2101120623        0.0566870664       -0.0627240086
 H       -10.3121950507        1.7145929127        0.4874427363
 H       -13.7842664144        2.5346064156        2.0845862492
 H       -13.8680850694        4.2317233001        1.4633541324
 H       -11.3128270956        3.1121517657        2.5127469828
 H       -12.4162280740        3.8249618964        3.5675534923
 H        -7.1325957543        5.0454904868        2.3541218622
 H        -7.7071284993        6.4377020181        3.1030608678
 H        -6.9624948514        6.2680676932        0.1470565949
 H        -5.9392149225        7.0966066249        1.3388538711
 H       -10.2658798441       10.5653080223       -0.9561970292
 H       -10.3353143917        9.6595278168        0.6688209041
 H       -12.5186231726        9.4660669784       -0.3249390920
 H       -11.9114096925        7.8882756543       -0.8693726888
 H       -12.4567822410        6.8932849430       -5.5716670314
 H       -11.0937765737        5.9270447677       -5.3275164392
 H       -10.9650859253        7.7605651141       -5.3842692341
 H       -14.4526527536        8.7876779654       -1.5962972893
 H       -13.5710968836        7.2155896435       -1.4260220344
 H       -14.8317603031        7.2436708372       -2.5407066017
 H       -14.3171577102        9.7107341014       -3.9353142662
 H       -14.1240609565        8.1865086994       -4.8398266609
 H       -12.8465477143        9.3335671039       -4.8996426840
 H        -7.9481540969       10.9561810324       -1.0370021516
 H        -6.4906314791       10.3216117275       -0.1731049743
 H        -7.9221846233       10.7478451440        0.8211608957
 H        -6.8147594635        7.1152691572       -1.5382124039
 H        -5.7725654156        8.4717757746       -1.0270613658
 H        -6.9089799350        8.6509783018       -2.3675278071
 H       -11.0209189186        7.0290458681        4.4690576240
 H       -10.9020399826        7.6620965999        2.8036833400
 H        -9.4662035247        7.5357590131        3.7546420781
 H        -9.6957127192        3.7397661340        3.8980824475
 H       -10.4637222707        4.7401231916        4.8540233949
 H        -8.7740775106        5.1192188245        4.3766791968
 H       -13.0807011314        1.5539467765       -2.3343579063
 H       -12.3976185649        0.0365288894       -1.7122965233
 H       -11.4344110393        1.4197552696       -1.7069435193
 H       -15.0768429910        1.2589701977       -0.7373438845
 H       -14.7589048969        0.7092245688        1.0098580271
 H       -14.4725174246       -0.2994359082       -0.4017887469
 H        -6.2656554696       -1.3527318865        3.1441193769
 H        -7.8388188637       -1.6194672366        2.5657142712
 H        -7.6411536542       -1.0706545012        4.2423410722
 H        -6.5224464035        2.3458830415        3.2810057349
 H        -5.2126057374        1.1686934468        2.8162131025
 H        -6.1285338416        0.9638088507        4.3482260706
 H        -6.8823115282       -4.4815810442       -2.1325578560
 H        -6.2964806343       -3.0605027490       -1.3884997675
 H        -6.2257157966       -3.2022178285       -3.1929266975
 H        -9.0920884436       -3.8308148597       -4.0425890307
 H        -8.0652804094       -2.4134304360       -4.5121304823
 H        -9.6748833393       -2.1671359201       -3.8285443764
 Na      -11.1411987069        5.5754419734       -0.5338509674
