117

 C        -6.1066813944       -4.5013517976        4.7715399650
 C        -6.2094261470       -5.3282015086        3.4217056622
 O        -5.7438414151       -6.4065932937        3.1365718328
 C        -7.0961391423       -4.6625442457        2.1187271454
 C        -8.4370878597       -4.4351215890        2.9034339629
 O        -8.8155945198       -5.2347539222        3.7907185561
 C        -9.4033249745       -3.2843985854        2.6451509494
 C       -10.7747949519       -3.2059628074        3.4212651339
 C       -11.5719830700       -1.7747586360        3.3014465976
 O       -12.1323873527       -1.5024963788        2.2871044457
 C       -11.4755258531       -0.7544129004        4.3741190348
 C       -10.3821605152        0.3152318828        3.7335107839
 O        -9.1912763246        0.2388172607        3.9963115105
 C       -10.8922089173        1.3483262421        2.6146400936
 C        -9.6475264276        1.9854761230        1.8472216142
 C        -9.8485486638        2.9210389047        0.6234939751
 O        -9.5549673097        4.0836169561        0.7187611189
 C       -10.3881868015        2.3022800838       -0.7544836651
 C       -11.8520118585        2.7924942754       -0.7152970134
 O       -12.4714734977        3.1601598325        0.2769379458
 C       -12.6673999539        2.6332878258       -2.1047317210
 C       -13.5391631015        3.7961061022       -2.4310130088
 C       -12.7695205107        5.0316685644       -2.0872825330
 O       -11.7087477969        4.9534660305       -1.5261991889
 C       -13.2833182977        6.4741645453       -2.3504687482
 C       -12.1304599482        7.1531893288       -3.0045554427
 O       -11.0200135510        7.2827863816       -2.4284711964
 C       -12.2844819847        7.7380242866       -4.3740752671
 C       -11.0971118879        8.5950945602       -4.6731587095
 C       -10.8434847239        9.8079869756       -3.7567555556
 O       -11.7122044664       10.1455980045       -2.9261885417
 C        -9.6062334323       10.6359031933       -3.8758419745
 C        -8.5559942944       10.2486523637       -2.7588784256
 O        -7.4563773135        9.9122778585       -3.0040779798
 C        -9.1374868593       10.2521136198       -1.3400161810
 C        -8.1241294437        9.9501220352       -0.2597122743
 C        -8.0959246416        8.4307345240        0.0940169362
 O        -9.1598263690        7.8694618124        0.2708658153
 C        -6.6878655879        7.7155813718       -0.0230669353
 C        -6.6415992982        6.8493110210       -1.3614097403
 O        -7.6699558686        6.3030813396       -1.6806563836
 C        -5.3256399406        6.7450069210       -2.0687499397
 C        -5.4838416333        8.7131136082        0.1073927082
 C        -6.8146579597        6.5467927243        1.1223658002
 C        -8.8512369986       10.7876767611       -5.2356796832
 C        -9.8526408976       12.1354228585       -3.5160059735
 C       -14.5368202016        6.4098824107       -3.1677385952
 C       -13.4105297116        7.2500866737       -1.0134102124
 C        -9.6212576787        2.8573157679       -1.8954088809
 C       -10.2790730767        0.7818279422       -0.8190539406
 C       -12.8931094206       -0.1150708206        4.5146465634
 C       -10.9958663037       -1.1704316211        5.7485587856
 C        -6.4579147513       -3.2203480059        1.9124927929
 C        -7.1516795055       -5.5347459035        0.8294481907
 H        -6.0334679139       -3.5016597233        4.4236779188
 H        -5.1506197315       -4.7299831638        5.2799535652
 H        -6.9914758473       -4.6148541112        5.3088049352
 H        -9.6487480749       -3.3317020114        1.6158591343
 H        -8.9119312844       -2.2232451315        2.7263517381
 H       -10.5685186058       -3.4647154837        4.4441019909
 H       -11.4181603752       -3.9664455676        2.8904827757
 H       -11.3317602850        2.2018327729        3.0929697609
 H       -11.6711803212        0.9279428015        2.0415688083
 H        -8.8956174161        1.2333565257        1.5385489208
 H        -9.0516531059        2.5942637389        2.6012934655
 H       -13.1761828584        1.6560247092       -2.1211536629
 H       -11.9752703180        2.2788587184       -2.9325751929
 H       -14.4478830901        3.5954284307       -1.7333595005
 H       -13.8489248916        3.8041940903       -3.4976490250
 H       -13.1360338054        8.4400184089       -4.4091462301
 H       -12.3461483394        7.0782874528       -5.1294469316
 H       -11.1553438695        8.8178202624       -5.7084646348
 H       -10.1805191378        7.9492873584       -4.4862309891
 H        -9.9411599609        9.5372922136       -1.3078143088
 H        -9.6212686307       11.2019422381       -1.0469461902
 H        -8.3395869966       10.4503376314        0.7198672572
 H        -7.2363863647       10.2766398096       -0.6944476086
 H        -5.0880680961        7.6764801908       -2.6717903600
 H        -5.3848790554        5.9304292583       -2.8387997152
 H        -4.5626577445        6.5975788567       -1.3632515229
 H        -5.4694163647        9.4085539707        0.9204938991
 H        -5.4309712762        9.2707525024       -0.8718679972
 H        -4.5106330468        8.1730276031        0.1305302458
 H        -6.2303971117        6.6913170508        2.0166677344
 H        -6.4603770343        5.7996812209        0.5534342122
 H        -7.8254954505        6.2533833835        1.5564644538
 H        -8.7459004900        9.8488211222       -5.7481527388
 H        -7.9427611628       11.3567832520       -4.9689649753
 H        -9.2836541460       11.4736387688       -5.9267354058
 H        -8.9236967719       12.6738775906       -3.5756105283
 H       -10.3801992821       12.2337623799       -2.5394522137
 H       -10.3757651235       12.5000508054       -4.4220175467
 H       -15.3504496203        5.8990036143       -2.6554354917
 H       -14.2368267912        5.9381428900       -4.0629726539
 H       -14.9929348782        7.4516942760       -3.2750625881
 H       -14.3105839024        6.9071265141       -0.4401512134
 H       -13.7097434864        8.2327835620       -1.1850315366
 H       -12.4660439694        7.1712555353       -0.4642792853
 H        -9.7723793818        2.5298378339       -2.9090628705
 H        -8.5518342547        2.5938164242       -1.6781010591
 H        -9.6632575965        3.9063555950       -2.0289181723
 H       -10.6459423890        0.4678821663        0.1439053678
 H        -9.2870481840        0.4966920339       -1.0467718488
 H       -10.9274898875        0.2826373635       -1.6162933119
 H       -13.5941773673       -0.8464009305        4.9528835457
 H       -13.3638759091        0.1154036433        3.5887297223
 H       -12.9392602718        0.7337539939        5.1885578581
 H       -11.6623643788       -1.9592707070        6.0723402019
 H       -11.0209664338       -0.3645051111        6.4097191190
 H        -9.9743587417       -1.5166622796        5.8454081316
 H        -6.1286882870       -2.7721937652        2.8359933477
 H        -7.1275337738       -2.6353015004        1.3083460947
 H        -5.5501193926       -3.4592135787        1.3201947147
 H        -8.1332641952       -5.9878305639        0.6796748165
 H        -6.3849529021       -6.3633631105        0.9278382130
 H        -6.8769505293       -4.9262025683       -0.1027553891
 Na       -9.7822678769        6.0183136390       -0.6477315230
