117

 C        -1.8445813124        2.7769542841        8.9590470129
 C        -3.1128180277        3.3692378803        8.3967975880
 O        -4.1040614826        3.7181226607        8.9923521678
 C        -2.9930747699        3.8252019965        6.8086328386
 C        -4.1670259334        3.0444898810        6.1090546132
 O        -3.8150791557        1.9622223371        5.6752214372
 C        -5.6271823794        3.5570372964        6.0062048696
 C        -6.4706525822        2.9406414656        4.9774001931
 C        -7.9002371189        3.5002799267        4.8807737163
 O        -8.1937626003        4.5704389864        5.3538933682
 C        -8.9945107654        2.8156136760        4.0713005391
 C       -10.0364521164        3.8517474199        3.6152185750
 O       -11.2275501995        3.6161623635        3.6148432278
 C        -9.5050675363        5.1621547125        2.9741440729
 C       -10.6504145522        6.0507119450        2.4629338585
 C       -11.3316562294        5.4793467626        1.2231405530
 O       -10.6317482064        4.9078260221        0.4486471463
 C       -12.7134601861        6.1240663079        0.7304847387
 C       -13.4226649449        5.1587524524       -0.3489073397
 O       -12.9842745944        5.0204973277       -1.4635729451
 C       -14.8984797950        4.5423577609       -0.2655445642
 C       -15.1101336459        3.2891271344       -1.1311067341
 C       -14.1228511250        2.2634202488       -0.5767047157
 O       -13.5893867112        2.4680685541        0.5031215152
 C       -13.8433777828        0.9765204028       -1.4029976217
 C       -13.0491816207        1.3173724333       -2.7114961668
 O       -12.2453922098        2.2031622265       -2.5085272388
 C       -13.2767344633        0.4762667469       -3.9239119086
 C       -12.3835868240        0.8036862094       -5.1308563245
 C       -12.3456498713        2.2104753678       -5.7204429479
 O       -13.2499391985        2.9675609671       -5.3774807390
 C       -11.4962595686        2.6600653834       -6.9403835621
 C       -10.5863226894        3.8878898084       -6.4985579209
 O        -9.5110165858        3.6048465202       -5.9489846325
 C       -11.1535994089        5.2887100495       -6.2820583184
 C       -10.0487232183        6.1338724524       -5.5717255951
 C        -9.6473184909        5.4066764003       -4.2137677423
 O       -10.5386139166        5.2331927655       -3.4432318719
 C        -8.0718269646        5.1828912084       -3.6971293198
 C        -7.9148532155        3.6763946415       -3.3220749887
 O        -8.5815864363        3.2269937250       -2.3804377892
 C        -6.7345282108        2.9492916228       -3.8551263914
 C        -6.9722828548        5.6472992179       -4.6576154577
 C        -7.8895805693        5.7974337292       -2.3577237694
 C       -10.5766547878        1.5885559918       -7.5696366323
 C       -12.5203139468        3.0545950059       -8.0509391928
 C       -12.7184037853        0.1675530785       -0.5529811047
 C       -15.0511221840       -0.0254652848       -1.5083002639
 C       -13.5806744866        6.4402629241        1.9957926509
 C       -12.3744952961        7.4704198668       -0.1217740565
 C        -8.3557952163        2.3901998838        2.7454535411
 C        -9.6573016735        1.6613507628        4.9222297775
 C        -2.9331985019        5.3447853839        6.8414764817
 C        -1.6065516354        3.2906669544        6.1749301768
 H        -1.4578512365        1.9089229002        8.4345257168
 H        -2.0677722746        2.5572625772       10.0615406143
 H        -1.0697067754        3.4640750889        9.0640784854
 H        -5.6529461662        4.5734825910        5.8518950417
 H        -5.9944714261        3.2413623717        7.0111078608
 H        -6.5145177579        1.8238215488        5.1722753611
 H        -5.9430950376        3.0164221983        3.9282238129
 H        -8.8810372877        4.8145705153        2.1292794086
 H        -8.9613495457        5.7906132336        3.7190962542
 H       -10.2339119944        7.0527441630        2.2006934764
 H       -11.3659327787        6.2429279171        3.2558080125
 H       -15.4010473838        5.4104485844       -0.7361184107
 H       -15.2386032744        4.2386058158        0.6996398257
 H       -14.6985822613        3.6666916070       -2.1038830858
 H       -16.1665898067        2.9678570876       -1.1474928607
 H       -14.2807456327        0.7058033724       -4.1521433724
 H       -13.1076750612       -0.5439395907       -3.5934522928
 H       -12.6853868163        0.1120350440       -5.8737543562
 H       -11.3678609078        0.5382349294       -4.9649536702
 H       -12.0406555911        5.1578836812       -5.5695385784
 H       -11.5510807898        5.7347419596       -7.2222338622
 H       -10.4619403820        7.1338245532       -5.3021491618
 H        -9.1797682062        6.1775691569       -6.2314080211
 H        -6.8829521988        1.9274752360       -3.4355943101
 H        -5.8168017945        3.3252943475       -3.5692664006
 H        -6.7062703845        2.9652647062       -4.9384230194
 H        -7.0197957924        6.7616737733       -4.8562347256
 H        -6.9149160031        5.0843643357       -5.5529483701
 H        -5.9699816729        5.6530932057       -4.1420660942
 H        -8.7095290601        5.5375766674       -1.6027544315
 H        -7.6804098099        6.8572460459       -2.5386397378
 H        -6.9517996843        5.3522428373       -1.9473304239
 H       -11.2274653985        0.7376704893       -7.9418030782
 H        -9.8426539209        1.1558684415       -6.9319808422
 H       -10.0232748909        1.9835070458       -8.3681557391
 H       -12.7211120409        4.1238989578       -7.8506071578
 H       -13.4307002050        2.4264949415       -8.2445008817
 H       -11.9245627293        3.1260719482       -8.9463941611
 H       -13.0891355405        0.0941115813        0.4758100153
 H       -11.7376836865        0.6116387634       -0.5100479985
 H       -12.5944391965       -0.8301425358       -0.9830153072
 H       -15.7399112453        0.0716944745       -0.5812881523
 H       -14.8263227599       -1.0999557742       -1.6063704840
 H       -15.4986415827        0.1257265717       -2.4484701490
 H       -14.5576647464        6.8800830149        1.6580963228
 H       -13.1103408005        7.0719692904        2.6456379608
 H       -13.6926600718        5.4132284834        2.4604230901
 H       -11.6307069300        7.1674672808       -0.8641095632
 H       -11.9497195864        8.3125186378        0.4242942987
 H       -13.1981177326        7.8008791590       -0.6898226916
 H        -7.6019787101        1.6189548617        2.9199934154
 H        -7.8359140409        3.2253052156        2.3412016154
 H        -9.0983838445        2.0363343477        2.0105290275
 H        -9.9982648534        2.1469594103        5.8847394041
 H        -8.8447116936        1.0182746411        5.3382693935
 H       -10.4914097363        1.0976404535        4.4684256193
 H        -3.7950721047        5.7596375576        7.3713928905
 H        -2.7688610721        5.7429360969        5.8460633286
 H        -2.0185142208        5.6157597211        7.4011091164
 H        -1.4711072636        2.2512456654        6.4001510057
 H        -0.7956595780        3.8338063888        6.5891520371
 H        -1.4840216950        3.5615001270        5.1388971444
 Na      -10.8419164280        4.0417739330       -1.7034068972
