117

 C        -9.9848195034       -4.5883030806       -1.7940865112
 C        -9.2951031507       -3.2959926546       -1.2872106026
 O        -9.4761371519       -2.8122337083       -0.1780067733
 C        -8.2677605236       -2.5878591150       -2.3858860040
 C        -8.0697762903       -1.1028623120       -2.0407943230
 O        -9.0020106102       -0.3663995967       -2.2661775200
 C        -6.8170330590       -0.5747921548       -1.3120926638
 C        -6.9877580180       -0.7871523091        0.2310111381
 C        -6.7442791920        0.5073242531        1.0373497173
 O        -6.1433177032        1.4636314190        0.6830357345
 C        -7.2122315583        0.4247392146        2.4941272885
 C        -8.6652570256        1.0295333000        2.5181155377
 O        -8.8630035143        2.2129950823        2.6204279889
 C        -9.9047289485        0.1240910758        2.0682458553
 C       -10.5305382518        0.6070000470        0.8403770416
 C       -12.0397877153        0.4507539820        1.0158124593
 O       -12.5108734236       -0.2497547901        1.8615760199
 C       -12.9639483939        1.2907699643       -0.0849173193
 C       -12.7598217821        2.7945488407        0.3120609616
 O       -12.1356480127        3.5565835375       -0.4471117710
 C       -13.2894206605        3.3752999445        1.7236858196
 C       -12.0782158372        3.8440260607        2.5839626653
 C       -11.5030869401        5.2647361644        2.2667625467
 O       -12.1007565102        6.0220311289        1.4833665504
 C       -10.1787716904        5.6852435029        2.9363837717
 C        -9.0888709940        5.5759473081        1.8096661965
 O        -9.3413887268        5.2215639464        0.6790409976
 C        -7.6403279405        5.9355536159        2.2248335394
 C        -7.0300672962        6.8994716819        1.1722999106
 C        -7.7891601276        8.2478943524        1.0145690317
 O        -8.3776448819        8.7967716269        1.8991890630
 C        -7.7326523305        8.9498372451       -0.4013426585
 C        -9.2349701695        8.4384441622       -0.9280571749
 O        -9.4097883351        7.3553796948       -1.4334048447
 C       -10.3297659125        9.4436781397       -0.5267323342
 C       -11.7660910176        8.9923537615       -0.9794413408
 C       -11.9709544596        9.2737153994       -2.4610132372
 O       -11.6049292802       10.2436125204       -3.0685113319
 C       -12.8439769303        8.1870692343       -3.2667365236
 C       -12.0398643375        6.9717213041       -3.5378950580
 O       -11.5863333699        6.1583495204       -2.7065051444
 C       -11.5108066032        6.8100952743       -4.9671340588
 C       -14.1024914455        7.9138146420       -2.3797668340
 C       -13.5105606020        8.8795950214       -4.5495672051
 C        -7.5559633476       10.4864340049       -0.2893506206
 C        -6.7354416259        8.3638355084       -1.4351340033
 C       -10.3978297046        7.1011414376        3.4895950689
 C        -9.7321985398        4.7553489895        4.1594883079
 C       -12.4260893885        1.0893125103       -1.5022758227
 C       -14.4394113916        0.9032763370        0.0061160497
 C        -7.3071874367       -1.0152151043        3.1455207577
 C        -6.1950311014        1.3175389055        3.3179944376
 C        -6.9023840015       -3.2483411397       -2.3066135709
 C        -8.8962788145       -2.8129488647       -3.7804431269
 H        -9.3616913114       -5.2340995707       -2.3111482663
 H       -10.8458808919       -4.2442914448       -2.4539303399
 H       -10.5342402272       -5.1732648802       -1.0463651338
 H        -6.8808104302        0.4935875356       -1.5637178084
 H        -5.8855411040       -0.9605516976       -1.6732284864
 H        -6.3156955347       -1.6289403634        0.6041372139
 H        -8.0133104089       -1.1314910827        0.4095116543
 H       -10.5297340407        0.2370487647        2.9738104831
 H        -9.5508262451       -0.8998757267        2.0292831417
 H       -10.2364358222        0.0987267298       -0.0522764114
 H       -10.3685473530        1.6770800792        0.6510981823
 H       -13.8585228506        2.6145244984        2.2691605102
 H       -13.8825497782        4.2881633719        1.5602643864
 H       -11.2615143757        3.1126135489        2.6224188919
 H       -12.3391377520        3.9303391213        3.6700942966
 H        -7.1102099731        4.9797231949        2.2703329356
 H        -7.6123694446        6.2411534807        3.3075507311
 H        -6.9391937310        6.2878560766        0.2248968498
 H        -6.0430880301        7.2533143340        1.3577290950
 H       -10.0784190279       10.4383651644       -0.8804876974
 H       -10.2716164026        9.4247573033        0.5879274204
 H       -12.4428191368        9.6463262937       -0.4474756590
 H       -12.0312589624        7.9630476130       -0.7236931306
 H       -12.3272599783        6.4804924197       -5.6036769832
 H       -10.7171639228        6.0604125959       -5.0395825990
 H       -11.2523917895        7.8275835247       -5.2726844693
 H       -14.4418229742        8.7992712630       -1.8614656392
 H       -13.9014587798        7.0966052817       -1.6981982333
 H       -14.8443972746        7.4967848421       -3.0218640627
 H       -14.0446908518        9.7123835708       -4.0458227117
 H       -14.1601489917        8.2459526437       -5.0469523794
 H       -12.7080011831        9.3004915182       -5.1921859802
 H        -7.7657103693       10.9180483295       -1.2788092960
 H        -6.5259237156       10.5959786599        0.0732093092
 H        -8.2263202007       10.8967784894        0.4486796247
 H        -6.8178015231        7.2771534281       -1.6358142530
 H        -5.7083602456        8.5209832006       -1.0682426513
 H        -6.8440962017        8.8525850884       -2.4596958598
 H       -11.0732331770        6.9726414527        4.3334950226
 H       -10.8426414170        7.7835441572        2.7763402189
 H        -9.5161342798        7.4685812690        3.8904434351
 H        -9.5967765637        3.6783582116        3.9656103804
 H       -10.4489899834        4.6148063807        4.8862468496
 H        -8.7793821805        5.1287729648        4.6146864132
 H       -12.9620379354        1.6703193774       -2.2083972535
 H       -12.4462996412        0.0611766571       -1.8569819292
 H       -11.3215168766        1.3255387633       -1.5533338330
 H       -14.9651213520        1.4773432553       -0.7565716424
 H       -14.7653344033        0.9410039625        0.9798225704
 H       -14.5353873531       -0.1508465979       -0.3841103292
 H        -6.3216515363       -1.4936211503        3.1418453626
 H        -8.0179656058       -1.6669726069        2.5760179733
 H        -7.6194827994       -0.9054879002        4.1349462921
 H        -6.3205302966        2.3311789398        2.9410500070
 H        -5.1948899365        0.9088816334        3.0894339661
 H        -6.4818516055        1.2865430550        4.3791635686
 H        -6.9832051823       -4.3098674935       -2.4816003968
 H        -6.5816349652       -3.1627684714       -1.2381235447
 H        -6.1940689925       -2.8308343598       -3.0205435393
 H        -9.0623343857       -3.8887549899       -3.9353721657
 H        -8.2450205961       -2.4151560447       -4.5816609397
 H        -9.9139332288       -2.2972804380       -3.8681578513
 Na      -11.1776831518        5.4905351387       -0.6583585337
