117

 C       -10.2302988369       -4.4377674002       -1.7405861577
 C        -9.3083361040       -3.2902731435       -1.3266870459
 O        -9.3158861540       -2.8813882016       -0.2116567751
 C        -8.3218669935       -2.5328279731       -2.4599095460
 C        -8.2784255526       -1.0848702761       -2.0871079426
 O        -9.2404115786       -0.3247606451       -2.3036395645
 C        -6.9818866648       -0.4900739594       -1.3106853888
 C        -6.9794346798       -0.8778872731        0.2012941075
 C        -6.7698452825        0.4130957810        1.0705385128
 O        -6.3292441819        1.4575375835        0.5535829259
 C        -7.1762378748        0.3351642954        2.6200994776
 C        -8.6672282495        0.9508367606        2.5542406921
 O        -8.8927912392        2.1540258349        2.6266270509
 C        -9.8722576542       -0.0207534532        2.2810206165
 C       -10.5366529160        0.5487729680        0.9949599285
 C       -12.1496712419        0.4037017198        1.0883540271
 O       -12.7506057744       -0.2199333125        1.9075774068
 C       -12.9343580551        1.3721156301        0.1084167564
 C       -12.6563240572        2.8988515201        0.3937500897
 O       -12.1148668617        3.5337834017       -0.4472249801
 C       -13.1217218567        3.3989542988        1.7400236458
 C       -12.0740042185        3.8276551612        2.7433105766
 C       -11.4770944010        5.1812277126        2.2747274500
 O       -12.1005725289        5.9401569389        1.5671474477
 C       -10.0609605177        5.6693102116        3.0157712331
 C        -8.9522667777        5.7274541306        1.9438310484
 O        -9.2333169387        5.4321488384        0.7853399173
 C        -7.5287857574        6.1610652877        2.3720837086
 C        -6.8820635509        7.0004157111        1.2881159434
 C        -7.6230665580        8.3323658526        0.9934313878
 O        -8.0427321484        8.9763898280        1.9439623265
 C        -7.7414140806        8.9073745998       -0.4586785992
 C        -9.1504116314        8.3982211408       -0.9558925090
 O        -9.2608472479        7.2021970825       -1.1717726305
 C       -10.4305765132        9.3831299206       -0.7171027540
 C       -11.8100007034        8.8932549270       -1.1275040378
 C       -12.1184826465        9.1918549957       -2.6266021877
 O       -11.5882131018       10.1658489243       -3.1642090233
 C       -12.9347629801        8.1745654665       -3.5473649293
 C       -12.0155488291        6.8650573721       -3.7491937412
 O       -12.0377949161        6.0918302627       -2.8061898065
 C       -11.2955252343        6.5271349596       -5.0204209982
 C       -14.1729200748        7.7010260185       -2.8136871911
 C       -13.2127101528        8.8445890551       -4.8581922106
 C        -7.6945474175       10.4793904171       -0.3741100209
 C        -6.5804062765        8.3947801752       -1.3665226729
 C       -10.2079575782        7.2358382833        3.3451373553
 C        -9.8117647329        4.8616394837        4.2384407017
 C       -12.3657251053        1.0466528966       -1.3544131757
 C       -14.4430994826        1.0820066018        0.2578645012
 C        -7.0641930782       -1.1056280246        3.1730009371
 C        -6.5072483276        1.3831831443        3.5840676819
 C        -7.1200911314       -3.4825774527       -2.3627584488
 C        -8.9370479232       -2.5656130690       -3.9288785493
 H        -9.7000959592       -5.1093654388       -2.4971184265
 H       -11.0932566039       -4.1003350802       -2.2775571685
 H       -10.5136888979       -5.1109232409       -0.9211560230
 H        -7.0098087893        0.6250511292       -1.3642726798
 H        -6.0454629984       -0.7988840792       -1.8930140380
 H        -6.2696987448       -1.6482066887        0.4702698821
 H        -8.0156043513       -1.3423032248        0.3432888610
 H       -10.3839765360       -0.0340287584        3.2373778940
 H        -9.4280710215       -0.9933627749        2.1238141860
 H       -10.1741517093       -0.0048022775        0.0966255695
 H       -10.3859702785        1.5978856987        0.7835685517
 H       -13.6654028290        2.5922796207        2.2587376991
 H       -13.7941647903        4.2599755675        1.5907889259
 H       -11.2428679733        3.1126668841        2.9501905446
 H       -12.5569992880        3.9483033235        3.7162181615
 H        -6.9317631113        5.2824994770        2.6866264398
 H        -7.6103663523        6.7036954264        3.2713842031
 H        -6.7856348382        6.4338468842        0.4228007916
 H        -5.8600337369        7.3035789020        1.6550977935
 H       -10.0907451478       10.2655031807       -1.2531764799
 H       -10.3966581775        9.6526790247        0.3097151089
 H       -12.6386994397        9.2584041738       -0.5029897164
 H       -11.7491154964        7.8117156771       -0.9822360781
 H       -11.9570877904        5.9065368172       -5.6566219461
 H       -10.5042325895        5.8682682266       -4.6804307048
 H       -11.0250132702        7.4444445054       -5.5886502351
 H       -14.6909374530        8.6111605278       -2.3825905023
 H       -13.8636433930        7.1179837826       -1.9681360492
 H       -14.8656215634        7.0778447804       -3.3737340644
 H       -13.9765301049        9.6344731385       -4.8408868538
 H       -13.4952227393        7.9640065296       -5.5105709763
 H       -12.2685815566        9.2959178274       -5.1142959100
 H        -8.0193028616       10.8156139879       -1.3022264144
 H        -6.7148111114       10.7661893212       -0.1066321611
 H        -8.5564476234       10.7760000576        0.3458254350
 H        -6.8990697545        7.4735496347       -1.8810387236
 H        -5.5917343178        8.2628557551       -0.9083806244
 H        -6.4701603779        9.0216652811       -2.1759828890
 H       -11.0928002774        7.4666885213        3.9646440268
 H       -10.3722566175        7.7507089691        2.4031775910
 H        -9.3395017337        7.5980438030        3.9724893541
 H        -9.5850389122        3.8324560727        4.1742485417
 H       -10.7876358785        4.7242499787        4.8261512593
 H        -9.1243572361        5.3017617232        4.9048497817
 H       -13.0276140584        1.6070149758       -2.0837303382
 H       -12.6239303918        0.0266327982       -1.6392582688
 H       -11.3393579053        1.0638343767       -1.5569440132
 H       -14.9856295512        1.7435426687       -0.4263517739
 H       -14.6481160143        1.2112240697        1.3794923158
 H       -14.6990417866        0.0859239200       -0.0181541650
 H        -6.0407180318       -1.4161226356        3.3414836052
 H        -7.4954590097       -1.7780600759        2.4572704037
 H        -7.5383221410       -1.0610304133        4.2357143304
 H        -6.0041080320        2.1677875106        3.0062394078
 H        -5.8238419410        0.8179615277        4.1617247728
 H        -7.2883379262        1.8438186588        4.1681988710
 H        -7.2629518407       -4.4018510261       -2.9788643804
 H        -7.0049079924       -3.7572379363       -1.3472834406
 H        -6.2188315016       -2.9694289960       -2.7054261458
 H        -8.8817951587       -3.5638664007       -4.3692399995
 H        -8.3977407494       -1.8555051609       -4.5289590367
 H        -9.9303068816       -2.2680943279       -3.9462500348
 Na      -11.0780720808        5.6613902464       -0.7343867923
