117

 C       -10.4551308562       -4.2997307093       -1.8397912099
 C        -9.3859109096       -3.2772360156       -1.4436535325
 O        -9.2772302612       -2.8783311639       -0.2733412076
 C        -8.4697035684       -2.5217779803       -2.4574171505
 C        -8.3989298992       -0.9748115571       -1.9718127026
 O        -9.3650886474       -0.2841230221       -2.1644896213
 C        -7.1521136214       -0.5228963474       -1.2202231408
 C        -7.0364091343       -0.8401686792        0.2737730359
 C        -6.8003022912        0.4339303088        1.0798954477
 O        -6.4210287949        1.5193341782        0.7149382296
 C        -7.2258435005        0.2585277881        2.6716801365
 C        -8.7395760584        0.7777126307        2.6740132799
 O        -9.0077170779        1.9798838969        2.7175329000
 C        -9.9036238811       -0.1610615833        2.2904364224
 C       -10.6685326966        0.3100729084        1.0665664385
 C       -12.2216397966        0.4136637676        1.1644970349
 O       -12.8778587504       -0.1278826020        2.0562068441
 C       -12.9747407101        1.4091197515        0.1694503098
 C       -12.6128419950        2.8793462271        0.5017458876
 O       -11.9144364814        3.5229437184       -0.3501576871
 C       -13.0910334109        3.4380891394        1.8170123187
 C       -11.8494605569        3.8003083155        2.6932840605
 C       -11.3358667476        5.2876649505        2.3787946836
 O       -11.8345112771        5.9550732601        1.4649945590
 C       -10.0868812530        5.9036980065        3.0571798326
 C        -8.8868105199        5.8813645768        1.9790436889
 O        -9.0119238005        5.4673040375        0.8567234163
 C        -7.5023324219        6.3223922966        2.4442539352
 C        -6.8690599061        7.0333390521        1.2695670081
 C        -7.4801959900        8.4061462380        1.1250429074
 O        -7.7987629475        9.1117636023        2.0495135421
 C        -7.7439543891        8.8860545449       -0.3607223517
 C        -9.1965224378        8.3429779870       -0.7534373702
 O        -9.2606990580        7.2098874225       -1.1840093243
 C       -10.4237117839        9.3619829244       -0.8792411622
 C       -11.6684539336        8.6350141996       -1.4383466628
 C       -12.0101736137        9.0365121106       -2.8760820764
 O       -11.5723094944       10.0427888141       -3.3175328666
 C       -12.8916904119        8.0193708580       -3.8216163427
 C       -12.0879652027        6.6698585525       -3.8515106550
 O       -12.1940556013        5.9337265487       -2.8717710148
 C       -11.0969814632        6.3885465937       -5.0293020386
 C       -14.3036998904        7.7870705694       -3.2002962462
 C       -13.0141594900        8.7337951818       -5.1897273164
 C        -7.6764265629       10.4843811100       -0.4090588034
 C        -6.7789743500        8.3730587265       -1.3986155363
 C       -10.4781895253        7.3707959187        3.3943796599
 C        -9.6401512987        5.1434542850        4.3446703400
 C       -12.6061757815        0.9875027235       -1.2531252406
 C       -14.5176501744        1.1524772045        0.2567336593
 C        -7.0292135195       -1.1389438240        3.3193672552
 C        -6.2968194548        1.3401424356        3.3754203490
 C        -7.1070361591       -3.3362454544       -2.4787442899
 C        -9.0981352987       -2.5749273423       -3.9047898005
 H       -10.3053217661       -5.0308098388       -2.6108536251
 H       -11.3169447273       -3.6921807903       -2.2639581389
 H       -10.7645959981       -4.8565553435       -0.9386256581
 H        -6.9547787441        0.5438553093       -1.2960353029
 H        -6.3604831390       -0.9111657100       -1.7859387510
 H        -6.0988234974       -1.4054144611        0.3838001245
 H        -7.8112809196       -1.4522162102        0.6011328307
 H       -10.6476380573       -0.1994777055        3.1149387840
 H        -9.4648314805       -1.1683843392        2.2412538135
 H       -10.5266917618       -0.3073392796        0.1890634406
 H       -10.4858765979        1.3575927287        0.7523068367
 H       -13.6985720884        2.7119748329        2.3685902770
 H       -13.7117281895        4.3083963831        1.6210297305
 H       -11.0108729723        3.1275173589        2.5762221963
 H       -12.1656052454        3.7230505677        3.7400275692
 H        -6.9438545072        5.4252504275        2.6309297774
 H        -7.4527968205        6.9265599236        3.4054714248
 H        -7.0942192008        6.4309694944        0.3026027710
 H        -5.8079548215        7.0503108330        1.5072927391
 H       -10.1084374046       10.2703947013       -1.4442078261
 H       -10.5787506426        9.6978120428        0.2005283865
 H       -12.5677506578        8.9297420441       -0.8685573071
 H       -11.5960460628        7.5837323437       -1.3472704795
 H       -11.6665636777        6.0993356268       -5.9000048797
 H       -10.4143444468        5.5996585633       -4.7060433792
 H       -10.6280536396        7.2771481067       -5.3260335554
 H       -14.9167069463        8.6269275181       -3.3013995317
 H       -14.3704432685        7.4350892853       -2.1232694627
 H       -14.7660044496        6.9855807802       -3.8299363051
 H       -13.7889135315        9.4276804678       -5.0239056100
 H       -13.3161836784        8.0332800015       -5.9600482269
 H       -12.1659988551        9.3783272581       -5.3640048739
 H        -8.3551064170       10.7815463690       -1.2668517723
 H        -6.6294202173       10.7932274732       -0.6546823203
 H        -8.0919778773       10.8281890234        0.4360189696
 H        -6.9720267436        7.3451463702       -1.5661071664
 H        -5.7240025664        8.5568913968       -1.2528763756
 H        -6.9354990414        8.7687095532       -2.4866516492
 H       -11.3855726411        7.3831892258        3.9801926955
 H       -10.6921976768        7.9956068621        2.5083585206
 H        -9.7401524832        7.7516906264        4.0660491996
 H        -9.5316727470        4.0488682560        4.1863796867
 H       -10.2376906097        5.1998446987        5.2006843172
 H        -8.6661363162        5.4933074641        4.7624313526
 H       -13.2247601840        1.3658862993       -1.9889557102
 H       -12.6236858986       -0.0769768471       -1.4539492715
 H       -11.5333292526        1.2132581859       -1.4174135735
 H       -15.0517597397        1.8919711465       -0.3621117406
 H       -14.8873940990        1.1477534149        1.2656546807
 H       -14.6703120435        0.1585406554       -0.1910728333
 H        -5.9714637593       -1.4570214458        3.2872667699
 H        -7.5467182768       -1.9208883435        2.7772729543
 H        -7.2556450062       -1.0357896161        4.2965250112
 H        -5.8455952280        2.0103067240        2.6856364368
 H        -5.5290629962        0.8103606758        3.9572981211
 H        -6.9956298800        1.9062018864        3.9776872236
 H        -7.3117658349       -4.3767814926       -2.6003921660
 H        -6.5567542906       -3.1899734948       -1.5070275231
 H        -6.4825594547       -2.9929382402       -3.2978880477
 H        -9.4550995465       -3.5224259628       -4.1973554242
 H        -8.3731536085       -2.2144452309       -4.6228822902
 H        -9.9440101588       -1.8533099917       -3.9310864493
 Na      -10.9724919992        5.7205821221       -0.5606568815
