117

 C       -10.8140320529       -4.0865930652       -1.8571741403
 C        -9.7416689167       -3.1447090517       -1.3886948773
 O        -9.4363594747       -3.0826505952       -0.2251254089
 C        -8.8159650319       -2.3759466775       -2.4809430405
 C        -8.5652152170       -0.9470351836       -1.8165326668
 O        -9.5344829845       -0.2260177220       -1.8462730790
 C        -7.2281570182       -0.3343915775       -1.2794500849
 C        -7.0868384589       -0.7311412382        0.1813937852
 C        -7.0001166920        0.4589162510        1.1506220876
 O        -6.6586858481        1.5382524443        0.7346006037
 C        -7.4266627035        0.2403923069        2.6887810231
 C        -9.0281943071        0.5641204113        2.8107496161
 O        -9.4525262321        1.6319671099        3.2073913389
 C       -10.0030507430       -0.5160058864        2.3013168664
 C       -10.6939273359       -0.0609265598        1.0050273298
 C       -12.1756194458        0.3974412875        1.3587832300
 O       -12.6708734177        0.3741490398        2.4285974428
 C       -12.9791631098        1.2651618406        0.3040162642
 C       -12.3506548552        2.7440163325        0.4821116672
 O       -11.4731499770        3.1824588700       -0.2451504104
 C       -12.7512272264        3.4494351194        1.8092382775
 C       -11.5533148175        3.9564044117        2.6480738731
 C       -11.2447044096        5.4673443265        2.4088998629
 O       -11.8584024426        6.1061854628        1.5878257688
 C       -10.0090956111        6.0852535712        3.1758965851
 C        -8.8308134139        5.9858581656        2.1094414305
 O        -9.0113394953        5.4119773851        1.0343739197
 C        -7.3766923622        6.4890212231        2.3927878765
 C        -6.9510062514        7.2361152407        1.0466977699
 C        -7.6245320432        8.6272195931        0.8894791353
 O        -7.9637920499        9.3712082588        1.7830651086
 C        -7.9215838686        9.1134907364       -0.6215251228
 C        -9.3337571364        8.4887616940       -0.9521259654
 O        -9.3686283525        7.2716869513       -1.0689035969
 C       -10.4960347213        9.4159242013       -1.0857716856
 C       -11.7849724834        8.8394440120       -1.7300823677
 C       -11.5944297087        8.8921347087       -3.2134908347
 O       -10.9446292514        9.7396846188       -3.8443787798
 C       -12.4247745424        7.7918782310       -3.9728825258
 C       -11.8394280390        6.4001231377       -3.6603027850
 O       -11.8976992244        6.0028056429       -2.5408834021
 C       -10.9886912639        5.7412042257       -4.7092441815
 C       -13.8994935195        7.7227330226       -3.4180959123
 C       -12.4030590725        8.2144512999       -5.5162604724
 C        -7.8595325846       10.6498960964       -0.6815985242
 C        -6.9281006417        8.4408734343       -1.6118129847
 C       -10.3363641052        7.6069764301        3.3710647841
 C        -9.5610882633        5.4219398134        4.4711232443
 C       -12.8005633949        0.8576439790       -1.1184728471
 C       -14.4879405098        1.2921650213        0.6155909564
 C        -7.1238166406       -1.2153819803        3.2019990734
 C        -6.5775772903        1.2938237815        3.4504581851
 C        -7.5488625550       -3.1977222044       -2.4927879466
 C        -9.4282619046       -2.2240799320       -3.9432523564
 H       -10.4313271911       -4.9635852827       -2.4711345932
 H       -11.3217156509       -3.6446838173       -2.6542415834
 H       -11.3376441214       -4.5149640128       -1.0152922925
 H        -7.2171163700        0.7203528259       -1.4106541806
 H        -6.3750344933       -0.7119695697       -1.8260319754
 H        -6.1508652087       -1.2130838934        0.2463120589
 H        -7.8294563585       -1.4878494089        0.3831760295
 H       -10.6431591292       -0.6085235559        3.1932825863
 H        -9.5655996632       -1.5144683213        2.1030421105
 H       -10.6995912538       -0.8540130090        0.2230830611
 H       -10.1696623036        0.7840735074        0.6223777956
 H       -13.3774526601        2.7909541683        2.4214509605
 H       -13.4020826941        4.2935981474        1.6582837207
 H       -10.6535965112        3.4552247840        2.2782031885
 H       -11.7442434440        3.8422683973        3.6720062523
 H        -6.7972399222        5.5719115516        2.5902122154
 H        -7.3700842827        7.1652305464        3.2760425470
 H        -7.3406501921        6.6277937225        0.2297031289
 H        -5.8462594006        7.4894199423        0.9616293768
 H       -10.0796737863       10.2275052963       -1.7714634513
 H       -10.6316359950        9.9058491417       -0.0930695046
 H       -12.6246020859        9.4595901687       -1.4409129268
 H       -12.0191913536        7.8221638641       -1.4228799672
 H       -11.5829672611        5.5452217361       -5.5894716371
 H       -10.4720884537        4.9631354509       -4.2381021306
 H       -10.2655846743        6.4676745514       -5.0161180189
 H       -14.5519954988        8.6365155461       -3.3742253063
 H       -13.8686006208        7.3498610274       -2.4042152993
 H       -14.4379863443        7.0214873609       -4.0667623172
 H       -13.0161559867        9.1153704806       -5.6090230211
 H       -12.7713853036        7.4743507941       -6.2451215910
 H       -11.3952393692        8.4539169440       -5.7235570014
 H        -8.4336765494       10.8632727944       -1.5417693234
 H        -6.9226356227       11.1090386798       -0.9041534822
 H        -8.2583762681       11.0265689642        0.3675193416
 H        -6.9929236663        7.3596437960       -1.9005820516
 H        -5.8455467647        8.4575990080       -1.2856867681
 H        -6.9306939758        8.9951453057       -2.4835015666
 H       -11.0466034671        7.7948504445        4.1772348278
 H       -10.7456887033        7.9465812004        2.4163324092
 H        -9.3839588411        8.2084115331        3.4886745658
 H        -9.3807869666        4.3734471021        4.3931841698
 H       -10.1855872941        5.7134084580        5.3793903481
 H        -8.5887387894        5.7384440241        4.7726204852
 H       -13.3191789864        1.6167040229       -1.7561282724
 H       -13.2786338277       -0.0947661703       -1.3280783090
 H       -11.8534748628        0.8435151807       -1.5442655259
 H       -15.0466905974        2.0458805476        0.0874895578
 H       -14.7155706509        1.5578030693        1.6862670071
 H       -14.8466961686        0.3159038863        0.4327910150
 H        -6.0849518071       -1.2912294011        3.3543376066
 H        -7.4450096249       -1.9461012664        2.5262774546
 H        -7.6950415527       -1.4794510921        4.1505268332
 H        -6.9385907406        2.2963359095        3.2506570558
 H        -5.5758291436        1.2470250748        3.0417520519
 H        -6.4794237221        1.0090470460        4.4950879142
 H        -7.8517572690       -4.2022047283       -2.8033928227
 H        -7.0981166214       -3.2171017758       -1.5274798923
 H        -6.8362281900       -2.7357179716       -3.1770895512
 H        -9.4679551507       -3.1712786339       -4.4637061221
 H        -8.7019358625       -1.6567309287       -4.5137258205
 H       -10.3226974311       -1.7086001737       -3.9830837469
 Na      -10.7282240018        5.3626984249       -0.6510548623
