117

 C        -1.7600276976        2.8170399418        8.8515477060
 C        -3.0171101994        3.4546034581        8.2805764011
 O        -3.9610469194        3.7761074791        8.9206213803
 C        -2.9171246194        3.9606067450        6.7720367470
 C        -4.1386436091        3.1144283593        5.9648161956
 O        -3.8973200983        2.0169697627        5.5256576300
 C        -5.5284868693        3.6663775602        6.0567916345
 C        -6.4651153261        3.0439014552        4.9718728151
 C        -7.8699616398        3.6425246517        4.9379745584
 O        -8.1025655413        4.7401927734        5.4272327346
 C        -8.9136386627        2.8961911052        4.1105055583
 C       -10.0347271182        3.8868977210        3.6684834791
 O       -11.1787606768        3.6253039702        3.7331872435
 C        -9.5026855661        5.2765710404        3.0667998279
 C       -10.6790903722        6.1340396792        2.4229317591
 C       -11.2913895677        5.5920119425        1.0676345397
 O       -10.6977982171        4.7917481992        0.3890317898
 C       -12.7580943803        5.9956076194        0.5904609209
 C       -13.5549489177        5.1258342805       -0.3979630324
 O       -12.9776085300        4.8546332393       -1.4814517712
 C       -15.0496896894        4.6649629399       -0.2117951043
 C       -15.1880145703        3.3037551782       -1.0219954922
 C       -14.0628190252        2.2575257905       -0.5388350715
 O       -13.3894508416        2.6553593920        0.3549344371
 C       -13.8337591185        0.8776208381       -1.2618297523
 C       -13.0398124551        1.3117378337       -2.6027332164
 O       -12.1264843981        2.0574110143       -2.5930347027
 C       -13.3942739957        0.5208007382       -3.9768915869
 C       -12.2754844349        0.8236712077       -5.0542445199
 C       -12.5216426770        2.2955777047       -5.6794808560
 O       -13.3289152310        3.0452934005       -5.2142690914
 C       -11.5012494124        2.6947901014       -6.9247021975
 C       -10.5141979821        3.7044060293       -6.2234100711
 O        -9.3619734959        3.4499112948       -5.9471509682
 C       -10.9966841151        5.1510664013       -6.1506547656
 C        -9.9262874610        6.0408467532       -5.4722698470
 C        -9.5221751193        5.4351475888       -4.1587712054
 O       -10.4366342074        5.1769568526       -3.3986737437
 C        -8.0879617196        5.1463287554       -3.6599006256
 C        -7.8594867651        3.5348308883       -3.2224381929
 O        -8.6316358953        3.0880989145       -2.3801554561
 C        -6.7172867904        2.8286878435       -3.9339625265
 C        -7.0794540796        5.6394242768       -4.6530467280
 C        -8.0800844874        6.0268889330       -2.2923226498
 C       -10.6484884302        1.4601623460       -7.5474276548
 C       -12.5100905662        3.1071143187       -8.0261123018
 C       -12.8277306073       -0.0036944563       -0.5117257774
 C       -15.1531797765        0.0990916076       -1.4813758799
 C       -13.6214545325        6.4082995628        1.8748253943
 C       -12.4010538771        7.2319898877       -0.2412504491
 C        -8.4172868503        2.3357113207        2.7296208632
 C        -9.6577734365        1.7359380089        4.8580887644
 C        -3.0825252323        5.4638474744        6.7570614080
 C        -1.6174235237        3.4715630078        6.1386681307
 H        -1.4568367551        2.0010403901        8.2450124457
 H        -1.9448343278        2.4778855428        9.8009555969
 H        -0.8736934289        3.4460668559        8.9673983293
 H        -5.5084345415        4.7285604036        5.9024202578
 H        -5.7764124421        3.4052906931        7.0436039320
 H        -6.5369129843        1.9521219527        5.0737019163
 H        -6.0171879866        3.1912770324        3.9895202806
 H        -8.7326832011        5.0281471343        2.3573353030
 H        -9.1196161542        5.8796499917        3.8822802209
 H       -10.3281512904        7.1507679163        2.2844778070
 H       -11.5469452102        6.2213759958        3.1816212779
 H       -15.6736768786        5.4711297099       -0.4784332516
 H       -15.1138455498        4.2118874496        0.8431069549
 H       -15.1414996408        3.5957307638       -2.1474499153
 H       -16.1215229666        2.8402404556       -0.7130823356
 H       -14.3465587460        0.7826979573       -4.4228207883
 H       -13.1897206624       -0.5036225542       -3.6559610525
 H       -12.4435096438        0.0387267335       -5.7518496824
 H       -11.2572007920        0.6897148563       -4.7798940802
 H       -11.9573983615        5.2401266680       -5.6338724256
 H       -11.1615930753        5.5578462004       -7.1775953545
 H       -10.4640155918        6.9351275229       -5.3096593556
 H        -9.0878915740        6.2095333659       -6.1360303764
 H        -6.5628557380        1.9009904575       -3.4816291438
 H        -5.8422363793        3.4448914676       -3.8951778724
 H        -6.9022969892        2.7782480337       -4.9922404254
 H        -7.1856510248        6.7993263924       -4.8093342186
 H        -7.1447405390        5.1191074252       -5.6029300259
 H        -6.0662248109        5.6546870477       -4.2703394949
 H        -8.9788841981        5.8538873732       -1.6775114285
 H        -7.8331643729        7.1172002704       -2.6338345708
 H        -7.2512388702        5.6456896987       -1.6721947011
 H       -11.2734024400        0.5927192941       -7.5873733702
 H        -9.8096759115        1.1934691248       -6.9080570418
 H       -10.2156783824        1.6414486981       -8.5025743836
 H       -13.0317101245        4.0322177944       -7.7135918324
 H       -13.1965677559        2.3100763618       -8.2219716381
 H       -11.9513907276        3.3871327143       -8.9422036590
 H       -13.1628308138       -0.3463870617        0.4192808563
 H       -11.8703229137        0.5052444446       -0.3371594692
 H       -12.6659012509       -0.8425006461       -1.1849709329
 H       -15.7737556246        0.2443346131       -0.6218505019
 H       -15.1856794982       -0.9890292139       -1.7041683333
 H       -15.4965378036        0.5481903000       -2.4378281094
 H       -14.6095865795        6.6539985963        1.6219541665
 H       -13.1409730006        7.3563613031        2.2749537201
 H       -13.4811307977        5.6653169436        2.5864605770
 H       -11.6863224057        6.9070383232       -0.9990808523
 H       -11.8588114427        7.9520998915        0.3267969142
 H       -13.1981623068        7.7067896154       -0.7668712970
 H        -7.7723553353        1.4726421906        2.8433068180
 H        -7.8030131053        3.0635258992        2.1908856919
 H        -9.2637117332        2.0778234795        2.1668496068
 H       -10.1474704031        2.1359268454        5.7561514493
 H        -8.9609531996        0.9794213392        5.2008790134
 H       -10.4235781867        1.2959744901        4.2238649464
 H        -3.9792416796        5.6425103246        7.3314201342
 H        -3.2243767212        5.7451885589        5.7127091078
 H        -2.2972041585        6.0097420488        7.0957700599
 H        -1.6021947574        2.4040914456        6.2671993390
 H        -0.7102401147        3.8914756782        6.5382823618
 H        -1.5806015918        3.7262788665        5.1451645988
 Na      -10.9455126307        3.8031791370       -1.7586159775
