117

 C       -10.9592571814       -3.9568647231       -1.8903880468
 C        -9.8830749961       -3.0540082958       -1.3361484982
 O        -9.7167689770       -2.8850962503       -0.1533304746
 C        -8.9330860722       -2.2835752163       -2.4275467695
 C        -8.6988062092       -0.8478971535       -1.8314234116
 O        -9.6973239434       -0.1433905787       -1.8609586178
 C        -7.4168355161       -0.4093840462       -1.1732664180
 C        -7.1015889136       -0.8400792899        0.2740988196
 C        -7.0939184632        0.4391495530        1.1821678189
 O        -7.1046211370        1.5759964040        0.7411970043
 C        -7.4782555885        0.1433494265        2.7246472068
 C        -9.1090395950        0.2797397468        2.7473799182
 O        -9.5549193920        1.3582076482        3.1131595622
 C        -9.9692805477       -0.8852188008        2.2733579058
 C       -10.9635506139       -0.4341574807        1.1787086152
 C       -12.1655927886        0.4296720519        1.5989936057
 O       -12.6104496384        0.3871947628        2.6660969184
 C       -12.8212331488        1.3574566402        0.4727603138
 C       -12.2790523250        2.7489964077        0.6258541507
 O       -11.5643595973        3.2162728456       -0.3029518334
 C       -12.8220986546        3.6051397085        1.7325341740
 C       -11.6198313006        4.1207534143        2.6375762021
 C       -11.1850814199        5.5792476732        2.3351316114
 O       -11.8220973786        6.1952727943        1.5145184019
 C        -9.9340627774        6.1931243440        2.9709439974
 C        -8.6949111006        5.9492431877        1.9932431229
 O        -8.7686841856        5.2645407486        1.0013391273
 C        -7.4163448559        6.7222754492        2.2803866999
 C        -6.8769226764        7.4633341922        0.9981653360
 C        -7.6641601622        8.7268190460        0.6062081211
 O        -8.3025419709        9.2497400040        1.5188497417
 C        -7.8356520957        9.2361103034       -0.8090765303
 C        -9.3701501073        8.8534386577       -1.0592843357
 O        -9.5352449546        7.6705378323       -1.2215495106
 C       -10.6040216124        9.7773413003       -1.0423679814
 C       -11.7571394982        9.1280601780       -1.7864792075
 C       -11.4143070924        8.6247059674       -3.2047184479
 O       -10.4136414965        9.1337501908       -3.7240082228
 C       -12.2722722888        7.5047504880       -4.0496189691
 C       -11.6779244538        6.1578117208       -3.5282049236
 O       -11.7510818411        5.9674960672       -2.3592578048
 C       -10.7864410229        5.2688078675       -4.3873438553
 C       -13.7670303058        7.6211591388       -3.6431472795
 C       -12.0544522431        7.7732578492       -5.6110281297
 C        -7.5772270062       10.7852349792       -0.7912116688
 C        -6.8423980864        8.6464994136       -1.8039197795
 C       -10.1658702852        7.7146565328        3.1590218485
 C        -9.5459917675        5.4877040981        4.2627281105
 C       -12.5434037205        0.7203158768       -0.8900808609
 C       -14.3532735705        1.2760450600        0.7555133921
 C        -6.9488473584       -1.2647816974        3.1596664036
 C        -6.9235665313        1.3458635378        3.5278442330
 C        -7.6101743771       -3.0363257908       -2.5443825518
 C        -9.6255799316       -2.0985657039       -3.8215388680
 H       -10.6067065302       -4.5483125366       -2.7947678591
 H       -11.7863986176       -3.4162014476       -2.3331623863
 H       -11.2954371511       -4.6814566501       -1.1456478492
 H        -7.5041634637        0.7236199504       -1.0791726551
 H        -6.5097549550       -0.6337396151       -1.7667821943
 H        -6.0187756217       -1.1856579361        0.3418204651
 H        -7.7085705213       -1.6964731028        0.5569628213
 H       -10.6121329978       -1.2811616953        3.0624186103
 H        -9.3806692406       -1.6932316100        1.8410733222
 H       -11.3426112051       -1.3734642577        0.7132013740
 H       -10.4007528666        0.1550144317        0.4397320732
 H       -13.5748072857        3.0647223562        2.3487825859
 H       -13.4077195579        4.4329822833        1.3177176772
 H       -10.7545224613        3.5125510994        2.3600194065
 H       -11.9021844237        4.1076383942        3.6990514857
 H        -6.6537744898        6.1291253556        2.6385471885
 H        -7.6939108337        7.5050897607        3.0186946993
 H        -7.0057765924        6.7702921066        0.1310622766
 H        -5.8265584271        7.6359324230        1.1927583602
 H       -10.2353001264       10.6799248111       -1.5102940485
 H       -10.9038299129       10.0541146544       -0.0360977994
 H       -12.6034030418        9.8706416277       -1.7478243994
 H       -12.0452000267        8.3054688173       -1.1613668576
 H       -11.4612218848        4.6973065409       -5.1170017120
 H       -10.1135075859        4.6487335761       -3.7599463808
 H       -10.0949441357        5.8983364774       -4.9437389796
 H       -14.1276738594        8.5619291772       -3.9773183022
 H       -14.0476446837        7.5650631768       -2.5924714515
 H       -14.3680541708        6.8590417486       -4.1650813786
 H       -12.5432242004        8.6635183392       -5.9384616275
 H       -12.5561200807        6.9013138816       -6.1934764263
 H       -11.0123029516        7.6863687433       -5.8964952600
 H        -7.6919276551       11.2029919741       -1.7499044485
 H        -6.6140654443       11.0090433302       -0.4370053941
 H        -8.2582902912       11.2128760482        0.0489107898
 H        -6.9001799337        7.5848805573       -1.9465611655
 H        -5.8048167154        8.6647051967       -1.4787999250
 H        -6.9200047474        9.0702845154       -2.7705136464
 H       -11.0869153507        7.8016475026        3.6475542508
 H       -10.2289159058        8.2659097774        2.2255133211
 H        -9.3526522858        8.2218862324        3.7215881091
 H        -9.2853822798        4.4398081164        4.1926757523
 H       -10.3827771421        5.5888620191        4.9942169603
 H        -8.6476127673        5.9223564860        4.6903127647
 H       -13.1533403918        1.1510933638       -1.6884371984
 H       -12.7082484086       -0.3852188794       -0.7956218677
 H       -11.5767990061        0.9120521213       -1.2961229552
 H       -14.9189805417        2.1687344384        0.4427101046
 H       -14.5703709698        1.1964895787        1.8899204428
 H       -14.7949520974        0.4636714505        0.2443303773
 H        -5.8837883522       -1.3184204242        2.8127720050
 H        -7.5670246268       -2.0343304797        2.7827654126
 H        -7.0282135604       -1.5069607321        4.2520246743
 H        -6.9085953012        2.2021951681        2.8861674497
 H        -5.9171200724        1.1415655226        3.9236607588
 H        -7.5111050905        1.4600170574        4.4586230540
 H        -7.7539600757       -4.0230870978       -2.9737322303
 H        -7.1424486769       -3.1115907970       -1.5479118309
 H        -6.9980413780       -2.3954352770       -3.1867437173
 H        -9.7832738152       -3.0413942244       -4.3595198358
 H        -9.0721190104       -1.4191433825       -4.5340284970
 H       -10.5700948767       -1.5969392789       -3.5893923011
 Na      -10.8123259046        5.4575909467       -0.3649865096
