117

 C       -11.0025752862       -3.9880950539       -1.8391044159
 C        -9.8890481518       -2.9663974238       -1.3398958504
 O        -9.7094615264       -2.8014611878       -0.1278460359
 C        -9.0302931312       -2.2102142591       -2.3990922764
 C        -8.7626758205       -0.7618012266       -1.8703353905
 O        -9.6563465429        0.0580363016       -1.7978070389
 C        -7.3823881378       -0.3525865693       -1.3432412241
 C        -7.2380699515       -0.8121315931        0.1586683104
 C        -7.4261386061        0.3844055392        1.1527883533
 O        -7.2077135761        1.5212396721        0.7164475285
 C        -7.6613074836        0.1097647126        2.7108229584
 C        -9.2328427702        0.2159656822        2.8215221173
 O        -9.7594208548        1.2946328481        3.0156790213
 C       -10.0873900374       -1.0409464418        2.5294881730
 C       -10.9653109533       -0.6207413440        1.2872222602
 C       -12.1188530594        0.3487191203        1.6299925133
 O       -12.4164620846        0.5156679378        2.8180376559
 C       -12.8325136244        1.3221501445        0.5597566996
 C       -12.2634227473        2.7650100958        0.6978088602
 O       -11.6054147179        3.2803152590       -0.1622932232
 C       -12.7235242096        3.5543604360        1.9277600827
 C       -11.6464871786        4.2544438098        2.6904502897
 C       -11.1520878244        5.6051243969        2.2215780252
 O       -11.8530460324        6.3275409290        1.5195297473
 C        -9.8587767761        6.2331993896        2.8776233823
 C        -8.6098511667        6.0448968615        1.9186191875
 O        -8.7525943220        5.4216012740        0.8900857243
 C        -7.3141196332        6.8510126838        2.1770915575
 C        -6.8975691911        7.5982289989        0.9018166818
 C        -7.7137310466        8.8158546014        0.6228594016
 O        -8.3743533692        9.3262778723        1.5080879998
 C        -7.9717401433        9.2554988852       -0.8811646275
 C        -9.3519057919        8.7148482441       -1.1499018876
 O        -9.5453032408        7.4992163199       -1.2319564338
 C       -10.4352548652        9.8144191242       -1.3627201266
 C       -11.6377459593        9.1941172025       -2.0523229593
 C       -11.1072231246        8.6224420606       -3.3524574925
 O       -10.0279532109        8.8393132794       -3.8129820763
 C       -12.0681155342        7.4851307778       -4.0214552358
 C       -11.5922992775        6.1504891060       -3.3765525417
 O       -11.9820085381        5.8870878458       -2.1924966497
 C       -10.7590630651        5.1319940906       -4.1249958281
 C       -13.5633737882        7.5333898906       -3.6233433735
 C       -11.8084962165        7.5657963734       -5.4658729509
 C        -7.8683981297       10.8022528300       -0.8450523839
 C        -6.9935005593        8.7007942411       -1.9315772013
 C       -10.1630831658        7.6999026649        3.2248964907
 C        -9.5355912904        5.4924632753        4.2132918880
 C       -12.5726209627        0.7911780521       -0.8201735616
 C       -14.3736743331        1.2146265542        0.8025148548
 C        -7.0520395594       -1.2532699331        3.1972678104
 C        -6.9928457250        1.2336649550        3.4816163780
 C        -7.7257862773       -3.0736051684       -2.4815909555
 C        -9.6218917440       -2.0153376615       -3.8208227165
 H       -10.6937216076       -4.4664600506       -2.7311391689
 H       -11.9480608138       -3.4335566779       -2.1639559237
 H       -11.3183152786       -4.7728132518       -1.1235855001
 H        -7.2366933194        0.6979478134       -1.3411150854
 H        -6.5669703453       -0.8404105885       -1.8485509091
 H        -6.3375932316       -1.3177399010        0.3319760285
 H        -8.0291277731       -1.5276700793        0.3779437067
 H       -10.8187158845       -1.4306865901        3.2600720207
 H        -9.4396058743       -1.8327691572        2.1368086487
 H       -11.3493927216       -1.4729953596        0.7494774868
 H       -10.2747406079       -0.0574768835        0.6201999962
 H       -13.2154171016        2.9624911655        2.6673301893
 H       -13.5337008130        4.2028634923        1.5764979481
 H       -10.7894809166        3.6041038799        2.6725632056
 H       -12.0101695093        4.4292003767        3.6907197985
 H        -6.4759583678        6.0723535456        2.2967923830
 H        -7.3427698484        7.4876208978        3.0358063267
 H        -6.8404238859        6.8946537214        0.0587701595
 H        -5.8548442582        7.9925212977        1.1038441707
 H       -10.0510655391       10.6901578568       -1.9478898896
 H       -10.5379403918       10.1950157198       -0.3100051074
 H       -12.3830019541        9.9275762010       -2.2349106457
 H       -12.0821052246        8.3695421151       -1.4474052761
 H       -11.3370974914        4.6919705533       -4.8750702219
 H       -10.4016255725        4.3825968135       -3.4269191367
 H        -9.8260936530        5.5801956512       -4.4563604584
 H       -14.0891277865        8.4919335220       -3.7512168206
 H       -13.7350085667        7.2203425535       -2.5746737085
 H       -14.1374160731        6.7713859437       -4.1631436884
 H       -12.2252589031        8.5388135833       -5.7452329657
 H       -12.2673867955        6.8571270482       -6.0823871322
 H       -10.7400425213        7.5211155927       -5.7141348491
 H        -7.7581196735       11.2626066479       -1.8895016731
 H        -6.9329420834       10.9796741831       -0.2368119807
 H        -8.6132809094       11.2655421135       -0.3141987626
 H        -7.0937503418        7.6329012918       -2.0789191259
 H        -6.0115738300        8.6899934198       -1.5283133072
 H        -6.9422345217        9.0674257735       -3.0088951763
 H       -11.0357283658        7.6713362637        3.9602229105
 H       -10.4711013621        8.3376607032        2.3643350716
 H        -9.3083414895        8.2013307008        3.6620183577
 H        -9.1058676035        4.4660380852        4.0590520948
 H       -10.4322257360        5.2783503092        4.7483019794
 H        -8.8203086487        6.0825510730        4.8493483290
 H       -13.1159135926        1.3086421045       -1.6078817482
 H       -12.6967198999       -0.2605185756       -0.9145561867
 H       -11.4930603344        1.0447211359       -1.0448332322
 H       -15.0217467460        1.8211792084        0.1635373872
 H       -14.6405822142        1.3459686954        1.7948946009
 H       -14.7512154738        0.1736302675        0.5056453391
 H        -5.9942151229       -1.3026738743        3.0450276127
 H        -7.5586958039       -2.1806252662        2.8223769901
 H        -7.2263617511       -1.3271312528        4.2189451648
 H        -7.1970139558        2.1370407899        2.8769070917
 H        -5.9295525325        1.0979412639        3.5965389918
 H        -7.3926400343        1.3231950289        4.4682886701
 H        -7.9805262058       -3.9380181633       -3.0957075964
 H        -7.6374565126       -3.4509555539       -1.4705122644
 H        -6.8462271916       -2.5904421159       -2.8935549132
 H        -9.4051634404       -2.8224558350       -4.4809628032
 H        -9.1986291504       -1.1512494858       -4.2162536652
 H       -10.6968882168       -1.8771998601       -3.7802142242
 Na      -10.6493316418        5.5055899200       -0.4635942885
