117

 C       -10.9576373987       -3.8745577555       -1.8800739363
 C        -9.9513272906       -2.8648895982       -1.3311909748
 O        -9.7455543809       -2.8445041946       -0.1297844043
 C        -9.0392212311       -2.1974650133       -2.4073748623
 C        -8.6888084616       -0.7225136702       -1.9080775115
 O        -9.6006000015        0.0627486417       -1.8082134894
 C        -7.3071899889       -0.3722788843       -1.3623566305
 C        -7.3360491865       -0.8414962732        0.1235412990
 C        -7.3635869655        0.3765812355        1.1397742501
 O        -7.3401957140        1.5440271669        0.7719207599
 C        -7.6933267082        0.1024948890        2.6672978985
 C        -9.2593352806        0.2122926129        2.8022461130
 O        -9.6901336536        1.3123338802        3.0957767130
 C       -10.2055777067       -0.9494658858        2.5530568358
 C       -11.0931197306       -0.6798718865        1.2723339707
 C       -12.0696866620        0.4114847870        1.7380635247
 O       -12.3836399995        0.6056499087        2.8586954487
 C       -12.8035588729        1.2581182280        0.5799089771
 C       -12.3656231813        2.7687202940        0.7761355570
 O       -11.5803049798        3.2212355394       -0.0715694238
 C       -12.7509034642        3.5755954964        2.0441811659
 C       -11.5404727300        4.2198508344        2.8146905010
 C       -11.1430233797        5.6546713562        2.2977301637
 O       -11.7494333743        6.2465576847        1.4060216681
 C        -9.8751872252        6.2771777686        2.8922323700
 C        -8.6706148316        6.2008511834        1.7560301649
 O        -8.7887911566        5.5224245965        0.7876499027
 C        -7.3446240120        6.8071532906        2.1045262274
 C        -6.8117241297        7.5717589770        0.8856393767
 C        -7.7453308780        8.7966856616        0.6696265104
 O        -8.3686776870        9.4335831365        1.5314388852
 C        -7.8885637074        9.2890264918       -0.7972324736
 C        -9.3702647240        8.7387694393       -1.1067918150
 O        -9.5935175142        7.5630167181       -1.2480854939
 C       -10.4397364417        9.7844818813       -1.3864417940
 C       -11.5571071504        9.2079806806       -2.1573749997
 C       -11.0749973400        8.4675772727       -3.3756153373
 O        -9.9795239704        8.6992837258       -3.8857168330
 C       -12.0134800068        7.3705254219       -4.0967023985
 C       -11.6285973915        6.0094604133       -3.3334411496
 O       -12.0615205031        5.8482453924       -2.1932021197
 C       -10.6555594980        5.0887061034       -3.9905949549
 C       -13.5293673560        7.7213285111       -3.7115084488
 C       -11.7268270923        7.3274638138       -5.6350461246
 C        -7.8932849299       10.8314866725       -0.9403663647
 C        -6.9591927057        8.6958400559       -1.8653586828
 C       -10.2149091918        7.7103266501        3.3251602795
 C        -9.3861598718        5.5406322320        4.2116764700
 C       -12.5461006920        0.8907554823       -0.9097666510
 C       -14.3437107215        1.1726262244        0.8832089613
 C        -7.2294728774       -1.2723621112        3.1821902605
 C        -7.1103633832        1.2476569288        3.4789157323
 C        -7.8014599955       -3.0509060693       -2.4798266533
 C        -9.7124520212       -2.0869917953       -3.8538906890
 H       -10.4557829608       -4.3582364091       -2.7047991458
 H       -11.9456784878       -3.5540566644       -2.2316865222
 H       -11.1319024908       -4.6269235342       -1.1232763170
 H        -7.0194433301        0.6773344851       -1.2613614226
 H        -6.5255759387       -0.9470864564       -1.8007794264
 H        -6.4876433145       -1.5344817971        0.3037354390
 H        -8.2182789512       -1.4129879091        0.3590590966
 H       -10.9672034711       -1.0501402200        3.3386345957
 H        -9.6793335490       -1.8957974132        2.3477748178
 H       -11.7968301619       -1.4620332954        1.1133478909
 H       -10.4295809192       -0.6004016529        0.3689922518
 H       -13.3053828456        2.9944206290        2.7758639895
 H       -13.4792978738        4.3416977195        1.7438241017
 H       -10.6478100399        3.6009988824        2.7909166004
 H       -11.8938090860        4.3884798109        3.8837526378
 H        -6.7295146381        5.9428647856        2.3960040875
 H        -7.4217211066        7.5181739204        2.9914718653
 H        -6.7947324635        6.9120866953        0.0002626441
 H        -5.8583107826        7.9778610176        1.0006484555
 H       -10.0375842519       10.6268873078       -1.9042416106
 H       -10.7072122638       10.2043123650       -0.4037258598
 H       -12.1239594928       10.1167952347       -2.4761732292
 H       -12.1875871193        8.5816394602       -1.5392300187
 H       -11.0858076707        4.7219614303       -4.9071721463
 H       -10.3970082472        4.2397976759       -3.3697117335
 H        -9.7612880615        5.6114412940       -4.0844390673
 H       -13.7225777483        8.6830649286       -4.0247754615
 H       -13.8718443375        7.6203904273       -2.6491471663
 H       -14.2718676654        7.0874299498       -4.2305032380
 H       -12.1026243125        8.1519955227       -6.1388336801
 H       -12.1957573086        6.4004114129       -6.1331449797
 H       -10.6470827994        7.2518496343       -5.8702200878
 H        -8.2939982718       11.1260464037       -1.9186585073
 H        -6.8757085357       11.2016947795       -0.8078183662
 H        -8.5507496977       11.2949688433       -0.1431089182
 H        -7.0273792676        7.6264909968       -2.0230283946
 H        -5.8822808082        8.8645008345       -1.7794108610
 H        -7.2501318246        9.0467114178       -2.9235503721
 H       -10.9136595770        7.7158084667        4.1275726272
 H       -10.6238099038        8.3147261831        2.4970077823
 H        -9.2853464559        8.2272862141        3.6210520700
 H        -9.2047648809        4.4479434710        4.0519290911
 H       -10.1432538450        5.5285475916        4.9683467760
 H        -8.4388125630        6.0430241118        4.5636557837
 H       -13.0862904055        1.4629962508       -1.6217176039
 H       -12.7901172422       -0.1770009748       -1.0615234508
 H       -11.4695856500        0.9977140770       -1.1272096991
 H       -14.9394054050        1.6515735391        0.1179356428
 H       -14.6204975332        1.5352594364        1.8938817149
 H       -14.7755522942        0.1982935324        0.8392844017
 H        -6.1049116954       -1.3332025868        3.2312624790
 H        -7.5817528785       -2.1088987552        2.5981620421
 H        -7.5620060850       -1.4424630573        4.1677017095
 H        -7.6435066587        2.1051751191        3.1407640357
 H        -6.0263295988        1.3930457340        3.3112820796
 H        -7.2812066678        1.1148867318        4.5560413239
 H        -8.0650270591       -4.0547190580       -2.7279885326
 H        -7.3798238922       -3.0599312805       -1.4617407055
 H        -7.1816125900       -2.6743388505       -3.2815541623
 H        -9.8070677160       -3.0343702852       -4.3097753850
 H        -9.1704707847       -1.4096177610       -4.4968740654
 H       -10.7393503743       -1.7264012174       -3.7166649843
 Na      -10.5438229118        5.4557051293       -0.4101212735
