117

 C       -11.0653591500       -3.8107915165       -1.8288470974
 C        -9.9879269030       -2.7803126170       -1.4495884408
 O        -9.7727358341       -2.5169406935       -0.2839867779
 C        -9.0382708905       -2.1427123073       -2.5787284388
 C        -8.6421501697       -0.7218877198       -1.9949020182
 O        -9.4716592066        0.1594229261       -2.1190060806
 C        -7.2867145163       -0.4593901183       -1.3263458842
 C        -7.3471233724       -0.8631459739        0.2065173730
 C        -7.6151836722        0.2982334319        1.1559195791
 O        -7.5993194372        1.4236003614        0.7711898885
 C        -7.7990574949       -0.0528260059        2.7271549587
 C        -9.3234819479        0.2563511117        2.9288806705
 O        -9.6241655773        1.4373508715        3.1456247639
 C       -10.3831323120       -0.7973802682        2.8930527987
 C       -11.4645663137       -0.4360599695        1.6691549539
 C       -12.4614687675        0.6141695966        1.9941751631
 O       -12.9322111466        0.6807481221        3.1477176028
 C       -13.0263809191        1.5545376577        0.7865869517
 C       -12.3392550096        2.9452603553        1.0093204383
 O       -11.5102534213        3.3474452569        0.1964753986
 C       -12.6916322726        3.6866210023        2.3301647668
 C       -11.4482906208        4.1730939728        3.0762780492
 C       -10.9142420101        5.4525854710        2.4055826220
 O       -11.5140422618        5.9506911989        1.4930003769
 C        -9.6772727199        6.2076089505        3.0549860260
 C        -8.5802807129        6.2870781060        1.9498147650
 O        -8.8317430895        5.8443474765        0.8265087027
 C        -7.2566393984        6.9368023420        2.2552874509
 C        -6.6930158296        7.7718398711        1.0124713782
 C        -7.4910034185        9.0000274657        0.6174908020
 O        -7.9581819278        9.7079286921        1.4580688749
 C        -7.9021512766        9.2895689042       -0.8822652637
 C        -9.2633543061        8.7524678697       -1.3669852759
 O        -9.5082688116        7.6030887059       -1.0625184701
 C       -10.2410748730        9.6624501684       -2.1550665843
 C       -11.4982946283        8.9423417328       -2.6952835820
 C       -11.0058208763        8.0943073966       -3.8909146431
 O        -9.8910676737        8.3100798649       -4.3124259597
 C       -11.9267805851        6.9369884647       -4.4086535508
 C       -11.7462467141        5.9131737068       -3.2638942729
 O       -12.3631562085        5.9001556389       -2.2581062027
 C       -10.4845429304        5.0175000116       -3.2627344774
 C       -13.4017851458        7.2957457981       -4.6557677642
 C       -11.2489173615        6.5863886591       -5.7773736024
 C        -7.9630101696       10.8594407220       -1.1078037833
 C        -6.8556864936        8.7500392441       -1.8192816138
 C       -10.1277532871        7.6666043513        3.4091631937
 C        -8.9988405990        5.4866862744        4.2560924978
 C       -12.7058939243        0.8891423233       -0.5885182776
 C       -14.5080019823        1.8201326383        0.9788594945
 C        -7.3160480092       -1.4147357795        3.1812280661
 C        -7.1053474741        1.0444030884        3.5088503802
 C        -7.8887018535       -3.2195109686       -2.6376025418
 C        -9.8498335356       -2.1237843070       -3.8970510132
 H       -10.5589179213       -4.7326499847       -2.1766025695
 H       -11.6534057757       -3.4092511085       -2.5932957586
 H       -11.8636201721       -3.9926802265       -1.1385115157
 H        -7.1012176432        0.6066420332       -1.3936866300
 H        -6.4541465159       -1.0448336507       -1.6704579390
 H        -6.3270210099       -1.1812706634        0.5208850680
 H        -7.9131224880       -1.7574615025        0.2720868008
 H       -11.0429154571       -0.9217521602        3.7560628653
 H       -10.0420315139       -1.7853770786        2.5840251610
 H       -11.9927616748       -1.3856123868        1.4363522170
 H       -10.9195554084       -0.2359526934        0.7887083999
 H       -13.2525131723        2.9808405786        2.9924108920
 H       -13.3531965271        4.5242158068        2.1687031342
 H       -10.6112177574        3.4263766103        3.1210571484
 H       -11.5851563737        4.4704000321        4.1360861374
 H        -6.4964626601        6.1544256325        2.4354051629
 H        -7.2852270990        7.5208524276        3.2258919287
 H        -6.5090622725        7.1218679641        0.1937983505
 H        -5.6966320465        8.1028218123        1.2168707303
 H        -9.6501991969       10.1197970610       -2.9451887319
 H       -10.4428426157       10.4425842117       -1.4431502179
 H       -12.3236670850        9.6731665024       -2.9066610552
 H       -11.8478290546        8.2781294803       -1.9127912222
 H       -10.4392362669        4.4046719396       -4.1552075174
 H       -10.6316838438        4.3108425098       -2.5041822477
 H        -9.5702239244        5.5457949154       -3.0682573459
 H       -13.5535776260        8.0371861034       -5.5234229581
 H       -13.7952099579        7.7514769803       -3.7918208561
 H       -14.0122441113        6.4429991616       -4.9291314258
 H       -11.2888936408        7.3080798288       -6.6596026817
 H       -11.5890373511        5.6718001691       -6.1713813590
 H       -10.1841184774        6.5070254450       -5.6488092058
 H        -8.0478144828       11.2774732915       -2.1320932489
 H        -7.0155774154       11.1902192468       -0.6468159614
 H        -8.8146201069       11.2923935130       -0.6254337008
 H        -6.8350275793        7.6262346849       -1.9205324993
 H        -5.8119253588        9.0933802824       -1.5365175503
 H        -6.8677140843        9.0947772732       -2.8010412470
 H       -10.9998966227        7.7179127134        4.0891708694
 H       -10.3977006849        8.2042834485        2.5008960179
 H        -9.3671789167        8.2182319435        3.9978398103
 H        -8.5571475997        4.5418657044        3.9707744825
 H        -9.8515753398        5.3242445828        5.0166926374
 H        -8.3827036302        6.2144720768        4.7174309733
 H       -13.3174637645        1.3960586958       -1.3586653750
 H       -13.0105414288       -0.1541355955       -0.5932881211
 H       -11.6733881687        0.9166384957       -0.7554047513
 H       -14.7555310559        2.7450595346        0.4525871635
 H       -14.7928260069        1.9853198218        2.0222629503
 H       -15.2673407083        1.1111618321        0.7113619470
 H        -6.3493115575       -1.6536680740        2.8918875039
 H        -7.8886608670       -2.2009192625        2.7358772008
 H        -7.2684548883       -1.4792848864        4.2946804043
 H        -7.1615994797        2.0143326664        3.0191030931
 H        -6.0852195032        0.8211285199        3.6893740167
 H        -7.6740841583        1.2002566708        4.4094883628
 H        -8.0424623530       -3.9283509113       -3.4661056176
 H        -7.7662286480       -3.7359993660       -1.6953274851
 H        -6.9975022666       -2.6163784231       -2.8212385125
 H        -9.8438765433       -3.1559678679       -4.2391475119
 H        -9.4370404559       -1.5368284921       -4.7047263458
 H       -10.8337101476       -1.8165285049       -3.7601705679
 Na      -10.9070781661        5.6674562691       -0.4468793962
