117

 C       -11.1002350237       -3.8414075672       -1.8589531083
 C       -10.0392825073       -2.8529360151       -1.3640934349
 O       -10.0620165465       -2.4239822264       -0.2338477279
 C        -9.0493838919       -2.1789208679       -2.4147618603
 C        -8.7258890618       -0.7075305957       -1.9451956092
 O        -9.4424814926        0.2210042192       -2.2300682360
 C        -7.3797133970       -0.5336061052       -1.2616500860
 C        -7.3446232890       -0.9504297411        0.2290958877
 C        -7.6070438856        0.2012308589        1.1309672702
 O        -7.6841070388        1.3164812386        0.6584887046
 C        -7.8303369405       -0.0148196143        2.7193668358
 C        -9.4082093069        0.4074475792        3.0561686307
 O        -9.6780654575        1.5659932869        3.1357637630
 C       -10.5423862888       -0.7097287721        2.9763870704
 C       -11.4650735207       -0.4470611368        1.7908820517
 C       -12.6439329097        0.5305019742        2.0164571110
 O       -13.2427820569        0.4573068450        3.0445248789
 C       -12.9939512490        1.5755633271        0.9263922838
 C       -12.2803247551        2.9655199759        1.0884272443
 O       -11.6843114083        3.5061179975        0.1665092278
 C       -12.5266134642        3.6627581729        2.4582254839
 C       -11.3342044030        4.2522941090        3.1783681186
 C       -10.9513329747        5.6518041485        2.6383736904
 O       -11.7343625677        6.3305507076        1.9372663187
 C        -9.6235778012        6.2515957107        3.0965996429
 C        -8.5988313236        6.2400245383        1.9138873491
 O        -8.7428777993        5.6632241125        0.8532587437
 C        -7.3212815696        7.0836176335        2.1362880689
 C        -6.8203012653        7.7250047780        0.8654658818
 C        -7.6262167976        8.9976770358        0.4843949460
 O        -8.0032015220        9.7097202514        1.3969623578
 C        -7.8565474781        9.3472233736       -0.9600009167
 C        -9.2756032191        8.7405805242       -1.4598428929
 O        -9.5896569807        7.6078119594       -1.1984751637
 C       -10.2856793573        9.7207835484       -2.2070388819
 C       -11.3164513686        8.8844814955       -2.9224692639
 C       -10.8245219142        8.0052375961       -4.1018154654
 O        -9.8917934809        8.3623282325       -4.7512014235
 C       -11.6922408997        6.6930033407       -4.5016808467
 C       -11.4872347709        5.7549321751       -3.3191168899
 O       -12.2177808718        5.8964173105       -2.2771895557
 C       -10.4761785204        4.6936400605       -3.3126635229
 C       -13.1316260701        7.1911260043       -4.6867638439
 C       -11.2007728700        5.9939427108       -5.7737021333
 C        -7.8035270568       10.8640678004       -1.0334664015
 C        -6.7307581785        8.8786052566       -1.8649733970
 C        -9.9309687964        7.7220344237        3.6137596169
 C        -8.9408278026        5.4507907321        4.2652908299
 C       -12.8850683927        1.0966352444       -0.5397709281
 C       -14.5241146236        1.8614482078        1.1593163641
 C        -7.5113835219       -1.4882766968        3.0255008799
 C        -6.8583599442        0.9694859778        3.4300941665
 C        -7.7656851008       -3.0927811861       -2.6428452672
 C        -9.6830512480       -1.9540763537       -3.8653925606
 H       -10.7024045649       -4.6057153457       -2.4947786671
 H       -11.9926992993       -3.3522372520       -2.2791592814
 H       -11.6080743027       -4.2780340795       -1.0096567063
 H        -7.0615764864        0.5424595777       -1.2794916832
 H        -6.5890372426       -1.1652849585       -1.7536871633
 H        -6.4213862956       -1.4994328834        0.4631915071
 H        -8.1927904618       -1.7049097779        0.4273663251
 H       -11.1773695001       -0.6391690565        3.8551107650
 H       -10.2200698541       -1.7441475731        2.9029632300
 H       -11.8787089049       -1.3786389322        1.4253162718
 H       -10.7346656869       -0.1822940333        0.9664975219
 H       -13.0448740869        2.9903106496        3.1451352047
 H       -13.2068711729        4.5551291619        2.3213162392
 H       -10.4629153495        3.6111425521        3.1961311637
 H       -11.5104857769        4.4589524614        4.2467588873
 H        -6.5384628728        6.4319645757        2.4730767032
 H        -7.4095654621        7.7977094599        2.9221073669
 H        -7.0389367778        7.0339969733        0.0097157419
 H        -5.7183939644        7.7921870405        0.8346844324
 H        -9.8085081799       10.3649520446       -2.9399815242
 H       -10.7159656350       10.3373594430       -1.4029298944
 H       -11.9439012873        9.6134291340       -3.4159233889
 H       -11.9829990792        8.3326165561       -2.2345606126
 H       -10.3880959968        4.1316397951       -4.2743703668
 H       -10.6806865830        4.0035533421       -2.4441181381
 H        -9.5166339824        5.2213468121       -3.0945720780
 H       -13.2740683277        7.9052758007       -5.3990031822
 H       -13.4140209058        7.6787228806       -3.7282286281
 H       -13.8059192324        6.3724324955       -4.9138586999
 H       -11.2498884736        6.6046366917       -6.6116145484
 H       -11.7133193082        5.0154292341       -6.0917822079
 H       -10.1130946831        5.8182575657       -5.7231821392
 H        -8.1110932885       11.2182096963       -1.9859149428
 H        -6.8536123464       11.2802452801       -0.7985370283
 H        -8.5740057698       11.3189167239       -0.2892339510
 H        -6.4115209141        7.8986025509       -1.5945616978
 H        -5.8523839814        9.4759978402       -1.8352961960
 H        -6.9171911193        8.8201980596       -2.9652803519
 H       -10.6992708439        7.6482428495        4.3209050002
 H       -10.3136461096        8.3781848976        2.8570849381
 H        -9.1219233002        8.1754988369        4.1451983679
 H        -8.8488702716        4.4234496508        3.8693193424
 H        -9.4985919507        5.5742710023        5.1558556602
 H        -7.9123327320        5.8817636791        4.4068256178
 H       -13.3066376953        1.8628966620       -1.1629120840
 H       -13.3828057686        0.1152368717       -0.6832999680
 H       -11.7896267603        0.9963502920       -0.7017404493
 H       -14.9882515859        2.7295220695        0.6972909478
 H       -14.8502978299        1.9650949054        2.2268093778
 H       -15.0536513095        0.9698818229        0.8569264825
 H        -6.4116448321       -1.8436459636        2.9768089829
 H        -8.0814030341       -2.2498866333        2.4736735782
 H        -7.7593359512       -1.6058654635        4.0814386725
 H        -6.7747519259        1.9362914475        2.9588397239
 H        -5.8229406854        0.5564237896        3.5258065972
 H        -7.2900012814        1.2004596714        4.4173770317
 H        -8.2545818696       -4.0332478957       -2.7413522923
 H        -7.2226816501       -3.1523185519       -1.6811406349
 H        -7.0779070097       -2.8414117869       -3.4333390766
 H       -10.2659483185       -2.8121714606       -4.2339277695
 H        -8.9029537325       -1.8272773975       -4.6383967742
 H       -10.3119956370       -1.0020064831       -3.8715084338
 Na      -10.9298419571        5.8608834378       -0.3119494339
