117

 C       -11.2501013738       -3.8856370729       -1.7618171075
 C       -10.3590796460       -2.5977322002       -1.4983220621
 O       -10.5148003977       -2.0360909590       -0.4168012282
 C        -9.2917203086       -2.1214377793       -2.4776626584
 C        -8.9305914034       -0.6684066948       -2.0198444219
 O        -9.5634999752        0.2837234469       -2.3912142932
 C        -7.6291792183       -0.5316482779       -1.2350245098
 C        -7.6580540320       -1.0200532435        0.2501844745
 C        -7.8193649586        0.1070164691        1.2570120446
 O        -8.0103869621        1.2473099734        0.8797673888
 C        -7.9248200661       -0.0959523156        2.8066981768
 C        -9.2886983002        0.5078496772        3.3361790627
 O        -9.2903250346        1.4795012349        4.0726963506
 C       -10.5711568024       -0.1733170176        2.8374718848
 C       -11.3367575802        0.5401216954        1.6896865612
 C       -12.7460852213        1.0632500567        2.0519517252
 O       -13.2758085833        0.8138107746        3.0792614608
 C       -13.3974100594        2.1955365352        1.1234897670
 C       -12.5570859745        3.4770799501        1.2921691519
 O       -12.1316677487        4.2105305986        0.4300027305
 C       -12.5279792979        3.8832751774        2.7692029330
 C       -11.1708054856        4.3442708205        3.2618015342
 C       -10.8574562305        5.7870096258        2.8217334424
 O       -11.7087724583        6.4725230266        2.3266527026
 C        -9.3891329569        6.2661696769        3.1155460928
 C        -8.6250913405        6.2392748382        1.7508508119
 O        -9.1442232445        5.8777636138        0.7158651905
 C        -7.1469859613        6.7895088582        1.7008635874
 C        -6.8681170305        7.6874146236        0.5009837058
 C        -7.8264327195        8.8854228793        0.2122021734
 O        -8.4187523761        9.3470388093        1.1725354266
 C        -7.9902890639        9.4104248533       -1.1931180303
 C        -9.2891960124        8.8310943122       -1.7677238286
 O        -9.8859809665        8.0124790113       -1.0518750219
 C        -9.7351064139        9.1990654543       -3.1645916491
 C       -10.8095510482        8.3409568875       -3.7951018480
 C       -10.2554202865        7.1303309392       -4.5655963663
 O        -9.2850349979        7.2940535691       -5.3004961577
 C       -11.1112712908        5.8026433144       -4.5198185529
 C       -10.9647991452        5.3340675181       -3.0958712564
 O       -11.4483919947        5.8953866054       -2.1911686225
 C       -10.0110445074        4.1212712062       -2.7973263578
 C       -12.5076427991        6.2496846000       -4.9544061167
 C       -10.5997181974        4.7369160619       -5.5224069352
 C        -8.0681326732       10.9866837463       -1.0893048830
 C        -6.8879205147        9.0088113689       -2.1492456862
 C        -9.5062005888        7.7146826564        3.7407400398
 C        -8.6593485231        5.3590581552        4.2052268919
 C       -13.4308155262        1.8703348952       -0.3881770083
 C       -14.8421163289        2.4663504992        1.6594478626
 C        -7.8685335799       -1.5778457441        3.0859242474
 C        -6.7913250115        0.5711706355        3.4709782025
 C        -8.0770262989       -3.1414502789       -2.2906229359
 C        -9.6365452097       -2.0131151012       -3.9924405933
 H       -10.8123809508       -4.8182939114       -2.0966682599
 H       -11.8971950243       -3.5870151048       -2.5719301181
 H       -11.7565414808       -4.2216083875       -0.8411355861
 H        -7.3159756687        0.5426044685       -1.3712239682
 H        -6.8740596015       -1.0597007053       -1.8280289421
 H        -6.7767450500       -1.7211488618        0.4085509950
 H        -8.5514919306       -1.6266622661        0.4074580249
 H       -11.2560290821       -0.0984920745        3.6808271201
 H       -10.3739893309       -1.2336197562        2.7162845447
 H       -11.3826758116       -0.1209595853        0.7853146858
 H       -10.7885897242        1.4517277055        1.4046250298
 H       -12.7795326283        3.0124984587        3.4430276123
 H       -13.1862786931        4.7591285306        2.8113018243
 H       -10.3920572328        3.6444547168        2.9100073238
 H       -11.0657548678        4.3152889554        4.3861194614
 H        -6.4738552422        6.0168055153        1.5402209432
 H        -6.9455820834        7.3226569335        2.6432904103
 H        -6.9413396463        7.0414083923       -0.3863692903
 H        -5.8580909194        8.0019873144        0.6555653401
 H        -8.8849230828        9.0793778999       -3.7919178733
 H       -10.0191808778       10.2315375551       -3.1456315352
 H       -11.2763574119        8.9064670328       -4.6685708651
 H       -11.6445763352        8.1191349571       -3.1760318954
 H       -10.1658867791        3.2962530029       -3.4316853397
 H       -10.1372865088        3.8673572919       -1.7756196624
 H        -9.0330948826        4.4592071232       -3.0707085778
 H       -12.4561526046        6.9536909611       -5.8391738139
 H       -12.9152499624        6.7295153282       -4.1006865609
 H       -13.1307445009        5.3972043722       -5.1687923354
 H       -10.6088277841        5.1545678997       -6.5890732260
 H       -11.0856484284        3.8007288171       -5.5748045984
 H        -9.5141957239        4.5004632887       -5.3418831863
 H        -8.1620613508       11.5089543499       -2.0846372129
 H        -7.2520260922       11.4909761245       -0.5451117708
 H        -8.9185908623       11.2386569100       -0.5728169046
 H        -7.1344237244        8.0705678593       -2.6662494049
 H        -5.9247332396        8.8629865084       -1.6327760260
 H        -6.7325954424        9.7544932564       -2.9735597804
 H       -10.1860920241        7.6913356592        4.6455912760
 H        -9.9670375950        8.3928989289        3.0176075371
 H        -8.5751097963        8.1715936404        4.0503477737
 H        -8.4092588394        4.3916693571        3.7533984003
 H        -9.3840585083        5.2239298730        5.0624725548
 H        -7.8160581930        5.9566858624        4.4811880919
 H       -13.8266410158        2.7835104446       -0.8456107794
 H       -14.0682098061        1.0552067442       -0.5909930907
 H       -12.3944725876        1.7319231956       -0.6443046128
 H       -15.4436249104        3.2676053528        1.2000586051
 H       -14.8512727222        2.5887187840        2.6942728976
 H       -15.5071106595        1.5834802059        1.5129600189
 H        -6.8818547055       -1.9781801729        2.9445309714
 H        -8.5833306124       -2.1413863272        2.4094474318
 H        -8.1103297968       -1.8018403960        4.1721038520
 H        -6.7262446989        1.6382448655        3.2363162512
 H        -5.8538979637        0.1618562858        3.2052326854
 H        -6.8081053044        0.4508784085        4.5334234755
 H        -8.4411479834       -4.0728431086       -2.7696562727
 H        -7.8700286497       -3.3505508536       -1.2564304019
 H        -7.1600877679       -2.9038778775       -2.8470169804
 H        -9.8092421647       -2.9696603828       -4.4482799613
 H        -8.8630127688       -1.5110394288       -4.5236528316
 H       -10.5238289760       -1.4813422361       -4.1403562272
 Na      -11.2437219794        6.4274329416        0.0330081852
