117

 C       -11.3218335770       -3.7113295482       -1.9748270359
 C       -10.4393724949       -2.6536828472       -1.3616189356
 O       -10.7078261245       -1.9854825803       -0.3893268209
 C        -9.3366056714       -2.1319158100       -2.3413185144
 C        -8.9021650661       -0.6636854804       -2.1076934500
 O        -9.5149056152        0.2839567440       -2.5782530213
 C        -7.6237668341       -0.4305391109       -1.1929358245
 C        -7.8294337942       -0.8930230134        0.2256984672
 C        -7.9326750780        0.3133689466        1.3148938279
 O        -8.0545745213        1.4891152344        1.0813127527
 C        -8.0007354156       -0.1481723325        2.7663946694
 C        -9.3441561754        0.4796604288        3.3144325794
 O        -9.4018568200        1.4439428768        4.1060214949
 C       -10.6435225949       -0.1773200456        2.6736912914
 C       -11.3288400670        0.8445617570        1.7937912765
 C       -12.7588640159        1.1864351760        2.0767682224
 O       -13.2769095583        0.6178793375        2.9751161797
 C       -13.5296359681        2.3287394914        1.2708112174
 C       -12.8601683790        3.7480187085        1.5227976890
 O       -12.2811203200        4.3356069490        0.6472778943
 C       -12.8200356450        4.3387201747        2.9400645166
 C       -11.2698051822        4.6088558783        3.3541393137
 C       -10.7440108671        5.9383153237        2.8113860057
 O       -11.4302811339        6.7254067675        2.2180197719
 C        -9.2366624749        6.3191342571        3.0618053568
 C        -8.4013556479        6.4345308158        1.6750314988
 O        -8.8769264078        5.9306669818        0.6820552314
 C        -6.9661640298        6.9111754617        1.6971710144
 C        -6.6711344852        7.5784846607        0.3450440649
 C        -7.7497499306        8.7415509687        0.2336907976
 O        -8.3729658100        9.2291205939        1.1620917997
 C        -7.9671452490        9.4307305687       -1.2623906691
 C        -9.3276413935        8.7953984954       -1.8294218453
 O       -10.2086784786        8.4620013987       -1.0398858056
 C        -9.5065618816        8.9643024759       -3.3174466624
 C       -10.6324548261        8.1465798702       -3.9838422336
 C       -10.0157805288        6.7935949537       -4.5447580461
 O        -8.8377087350        6.6869627775       -4.9005922275
 C       -11.0112339647        5.4893974739       -4.6178014188
 C       -11.1320969766        5.1674981298       -3.0623105814
 O       -12.1086357312        5.6119321986       -2.4641849880
 C        -9.9509430414        4.4286550656       -2.4336588093
 C       -12.4501514393        5.7838680807       -5.0692306184
 C       -10.3033430994        4.4873899398       -5.5339891095
 C        -8.1869915630       10.9808897016       -1.0435486247
 C        -6.7044096959        9.1257382495       -2.1195390420
 C        -9.3030321283        7.7602105985        3.6667479660
 C        -8.3326368695        5.4724781332        4.0260049648
 C       -13.3590323716        1.9752072881       -0.2312652463
 C       -14.9933013417        2.2244324230        1.5766107720
 C        -7.9856941406       -1.6721529560        3.0714988399
 C        -6.8342294063        0.5677480090        3.4812212595
 C        -8.1707681497       -3.2162588334       -2.2930602628
 C        -9.9880910926       -2.1522747980       -3.8133480110
 H       -10.7892024292       -4.4442307705       -2.6362680870
 H       -12.0462150526       -3.2908458236       -2.6240460534
 H       -11.6471108472       -4.3786244003       -1.1651543341
 H        -7.4293627404        0.6364655513       -1.1712745416
 H        -6.8309915520       -0.8432650420       -1.7235013616
 H        -7.0107638759       -1.5052359347        0.5037521727
 H        -8.7568494626       -1.4659992175        0.3429594413
 H       -11.2988348668       -0.4262851975        3.5490973752
 H       -10.3887641846       -1.1245270449        2.2003316032
 H       -11.1464996273        0.6176620713        0.7748592870
 H       -10.8508292822        1.8169758341        2.0080400739
 H       -13.1821502215        3.6266853025        3.6906775093
 H       -13.2945363768        5.2988712541        2.9724335462
 H       -10.6382284034        3.7793673081        3.0564572106
 H       -11.2252814424        4.7235825894        4.4582326150
 H        -6.4082035272        5.9854074435        1.8350793027
 H        -6.8827442820        7.6412020433        2.6078187887
 H        -6.8310122311        6.8069130528       -0.4275875273
 H        -5.7597669364        8.1214244551        0.2708345388
 H        -8.5261885775        8.6851073525       -3.7608350933
 H        -9.6662633241       10.0635816712       -3.5113829086
 H       -11.1209972666        8.6393429199       -4.8524892526
 H       -11.4612308266        7.9307505020       -3.3148182204
 H       -10.1020726952        3.2992154812       -2.4779639881
 H        -9.9306516802        4.7257752848       -1.3551304112
 H        -9.0223549446        4.7530325072       -2.9319266163
 H       -12.3981263813        6.1658377959       -6.1496493198
 H       -12.9944854233        6.3880102606       -4.4242383176
 H       -12.9024219115        4.8046452666       -5.2498412768
 H       -10.2377971150        4.7739304405       -6.6331747511
 H       -10.8064978669        3.5729128657       -5.5696113867
 H        -9.2882276043        4.3943155103       -5.2464984058
 H        -8.8519485739       11.5219944568       -1.7889719689
 H        -7.1762123741       11.4556421826       -1.0711170634
 H        -8.6577621565       11.2100347096       -0.1692804590
 H        -6.3432758851        8.0727722594       -2.1584959075
 H        -5.9415190840        9.9068610883       -1.8963249662
 H        -7.0059581041        9.4183393793       -3.0928839047
 H        -9.7129205602        7.8816767237        4.6608496588
 H        -9.8402807695        8.3624600630        2.9504718955
 H        -8.3230555346        8.2226459725        3.7945324271
 H        -8.3408680144        4.4539285638        3.7746599430
 H        -8.6526111970        5.6020794591        5.0864309566
 H        -7.4596004472        6.0545811288        4.0250350964
 H       -14.1071632366        2.6117821167       -0.7418426296
 H       -13.6678284887        0.9126166912       -0.3675628044
 H       -12.3315035474        2.1135355962       -0.4746411368
 H       -15.6687846062        2.7929309170        0.9250311686
 H       -15.2093592976        2.3684275110        2.6276473249
 H       -15.3938815980        1.2245868572        1.5422776665
 H        -7.1571339192       -2.1991643085        2.6718123559
 H        -8.8096816712       -2.1495076208        2.6285631183
 H        -7.8568005250       -1.7329869699        4.1673823035
 H        -6.8911668015        1.6595809497        3.5438521348
 H        -5.8853398720        0.3811129058        2.9271766736
 H        -6.6852992259        0.2596484034        4.5446310818
 H        -8.5443387554       -4.1791564509       -2.6152224193
 H        -7.6947161612       -3.2824311958       -1.3186844254
 H        -7.3486280281       -2.9371895829       -2.9567158999
 H       -10.4951530943       -3.1074785827       -4.1037052617
 H        -9.1568477002       -2.0268259421       -4.5814190431
 H       -10.7289062899       -1.3863139009       -3.9848907464
 Na      -11.2238472054        6.1881208232       -0.1511588896
