117

 C       -11.9472979410       -3.2667932600       -1.5419115203
 C       -10.9176535198       -2.2204295758       -1.2085048670
 O       -10.9778769254       -1.5018161535       -0.2363236995
 C        -9.7445450600       -1.9755508133       -2.2798817192
 C        -9.2354973815       -0.4775498404       -1.9504879368
 O        -9.8469118195        0.3812370299       -2.5443405331
 C        -7.9791996579       -0.1616582999       -1.1832615258
 C        -7.8983704978       -0.7823404086        0.2660176731
 C        -7.9538448513        0.4057018766        1.3114320613
 O        -7.8222878527        1.5691460413        1.0037809525
 C        -8.1627156089        0.0196735150        2.8332813964
 C        -9.4332857526        0.7770346835        3.1660988038
 O        -9.4124630853        1.8729467719        3.6706309300
 C       -10.7843253288        0.2107681731        2.6042704336
 C       -11.5018561703        1.4494262565        2.0322856726
 C       -12.9961440708        1.5448626664        2.3836606628
 O       -13.6399561531        0.6539903559        2.9335062737
 C       -13.7924644438        2.7176964973        1.6046921197
 C       -12.9236624540        4.1023534310        1.7056657740
 O       -12.3629941287        4.4992335961        0.7349972182
 C       -12.9036831647        4.9762136924        2.9699386780
 C       -11.5383285337        5.3429227400        3.5911704311
 C       -10.6274118772        6.3238410263        2.7708976762
 O       -11.1973308958        7.0503423919        1.9848789488
 C        -9.0529756655        6.3679171478        2.8887056472
 C        -8.3805910494        6.1689758750        1.4311918052
 O        -9.0172268874        5.6601408187        0.4836252363
 C        -7.0341458338        6.8524463342        1.1236857974
 C        -7.0743322270        7.5103195969       -0.2327029855
 C        -7.8316200037        8.8399516661       -0.1737659778
 O        -8.1921385498        9.2880258830        0.8581623637
 C        -8.1079493712        9.5606110452       -1.5537239485
 C        -8.8682825623        8.4918482455       -2.4302327544
 O        -9.6963831994        7.7980701787       -1.8183185040
 C        -8.6630052991        8.3392874997       -3.9489286925
 C        -9.5862042968        7.1837701179       -4.5521566383
 C        -9.1132503146        5.7724057384       -4.1907905533
 O        -8.0165219669        5.5631125876       -3.8309239488
 C       -10.2712173267        4.5706556117       -4.2217342032
 C       -10.8339984934        4.5789584084       -2.7271907278
 O       -11.5086033262        5.5873993904       -2.4494682452
 C       -10.6929097898        3.4467393130       -1.7944951490
 C       -11.4487425426        4.9992248378       -5.0981602899
 C        -9.5984678799        3.2386658353       -4.6041388024
 C        -9.1101687506       10.7443032081       -1.5416845458
 C        -6.7839155527       10.1280301298       -2.0800710494
 C        -8.7542510294        7.7245944248        3.5313873832
 C        -8.4147006067        5.1829519640        3.6915222023
 C       -13.9309894924        2.3510463305        0.1644753946
 C       -15.1326690121        2.8226495002        2.3829215000
 C        -8.4284641381       -1.5309633228        2.9414435165
 C        -6.9851560301        0.5533055333        3.6444590794
 C        -8.6005515133       -2.9335449171       -2.1780221124
 C       -10.2112288775       -2.0522207957       -3.7589789859
 H       -11.3764367365       -4.0681730974       -2.0520964480
 H       -12.8783342346       -2.9637131644       -1.9728354602
 H       -12.2427404976       -3.6480867670       -0.5309560592
 H        -7.8741422536        0.9042369670       -1.1623330288
 H        -7.2137627229       -0.5891458788       -1.7895061183
 H        -7.0495012416       -1.3155974428        0.4986420681
 H        -8.7672693217       -1.3507970146        0.5840976505
 H       -11.2220753453       -0.2537014840        3.5025083708
 H       -10.6871427062       -0.5656482838        1.8707211530
 H       -11.6045802795        1.4347699869        0.9719417458
 H       -11.0549397872        2.4583963898        2.1891424255
 H       -13.5328069148        4.6043079647        3.7868227453
 H       -13.4585852806        5.9103285337        2.7211517212
 H       -11.0420798525        4.3548409227        3.8093355575
 H       -11.6549255497        5.7432796751        4.6316582883
 H        -6.2389617514        6.2318021763        1.2659617907
 H        -6.9216299209        7.6656394735        1.8664368904
 H        -7.6186775687        6.9050950314       -0.9479245693
 H        -6.1129183779        7.6037365491       -0.6719310685
 H        -7.6252694558        8.1417988235       -4.1868789681
 H        -8.8312270198        9.2638216835       -4.4425581378
 H        -9.3912667609        7.2656504135       -5.6333746185
 H       -10.6537374410        7.1951615209       -4.2385783915
 H       -11.7518076456        3.0943082029       -1.6712692985
 H       -10.3568072450        3.8386924334       -0.8148010873
 H        -9.9440223645        2.6748746702       -2.0599380292
 H       -11.0931325316        5.1475345226       -6.1874091007
 H       -11.9222699988        5.9187853287       -4.8049311872
 H       -12.2331878180        4.2189422403       -5.0361207137
 H        -9.3854139962        3.4352675421       -5.6890967606
 H       -10.2213462660        2.3925323829       -4.4980451896
 H        -8.6705452977        3.1074806211       -3.9668573240
 H        -9.0478149466       11.2505862961       -2.5403826658
 H        -8.9782605324       11.4747936906       -0.7511698779
 H       -10.1161321485       10.3714726375       -1.3889870664
 H        -6.3859486063        9.4442866992       -2.8138049910
 H        -6.2066200627       10.1115114049       -1.1628040290
 H        -7.0483979251       11.1361825874       -2.5774268957
 H        -9.5314529563        7.9220838729        4.3029902825
 H        -8.7923447240        8.5677313629        2.8478296993
 H        -7.8119449647        7.7863810166        4.0641775610
 H        -8.6664383987        4.1611363748        3.4216884952
 H        -8.5927915058        5.3508726055        4.8141807703
 H        -7.3422533991        5.2138453433        3.5146521184
 H       -14.7108803853        3.0372119084       -0.3156584257
 H       -14.2999067842        1.3453893341        0.0774491334
 H       -12.9308718700        2.4949120901       -0.2916671920
 H       -15.7004536247        3.5862094178        1.7703856900
 H       -15.0670174188        3.2421480508        3.3296089581
 H       -15.7002332799        1.8352155757        2.3163864387
 H        -7.6220034932       -1.9719977764        2.5037655823
 H        -9.3960158867       -1.7303024082        2.4305878888
 H        -8.4799045253       -1.8926685529        3.9577207847
 H        -6.8373225025        1.5879459314        3.2929015887
 H        -6.0196130959        0.0402815391        3.5410651296
 H        -7.1503672815        0.4485962145        4.7330484832
 H        -8.8425356512       -3.8996565592       -2.5948167134
 H        -8.4381811821       -3.0859121143       -1.1214398494
 H        -7.7055126809       -2.6616322188       -2.7342747194
 H       -10.4791059649       -3.0642193222       -4.1703573374
 H        -9.3032261894       -1.6447672535       -4.3113141792
 H       -11.0161320766       -1.3507694210       -4.0057818572
 Na      -11.1106966630        6.2466413227       -0.3617332991
