117

 C       -12.2902103031       -3.1389268729       -1.5490710591
 C       -11.1132021180       -2.1702419315       -1.0740684579
 O       -11.1463577169       -1.5571468267       -0.0354865407
 C        -9.9973773643       -1.9174172935       -2.1754091107
 C        -9.1890198755       -0.5968587317       -1.9084771598
 O        -9.7202417503        0.4824669681       -2.1563250095
 C        -7.8232366806       -0.6147120140       -1.2352066437
 C        -8.0302757468       -0.8222437523        0.2649513125
 C        -7.8596753845        0.4970141594        1.2024662478
 O        -7.3037316910        1.4881537165        0.7584980894
 C        -8.3175683510        0.4092726277        2.6706576219
 C        -9.5633466096        1.3124559457        2.9141755679
 O        -9.4857648012        2.3853930689        3.5439347148
 C       -11.0483704550        0.7390668667        2.5767900817
 C       -11.9357767772        1.6216921663        1.7655042822
 C       -13.2144160701        2.0311770149        2.4928843549
 O       -13.5225050252        1.4554527670        3.4935638024
 C       -14.1353344673        3.1704550753        1.9428933199
 C       -13.1255769364        4.3583751497        1.8198019611
 O       -12.8236817295        4.7586867512        0.7433722611
 C       -12.7160999448        5.0328901285        3.1314120710
 C       -11.1878496296        5.1217266577        3.4531429950
 C       -10.5283398646        6.1845891162        2.5552408407
 O       -11.2167133102        6.7741825681        1.7484347441
 C        -8.9591448163        6.4044286365        2.6455105709
 C        -8.3711382193        6.3812172064        1.2068005666
 O        -9.0982135489        6.1157766709        0.2573108975
 C        -6.9513778727        6.8126960174        1.0272101356
 C        -6.8097683449        7.6809079519       -0.2120785583
 C        -7.7998487483        8.8109977490       -0.1541695295
 O        -8.2116797472        9.3401583232        0.8372257888
 C        -8.2513159947        9.3509548755       -1.6048514959
 C        -8.9245646866        8.1903272576       -2.4177937387
 O        -9.8178448420        7.4940424749       -1.9601701262
 C        -8.3125900359        7.7897799950       -3.8524541419
 C        -9.1341050660        6.6928893908       -4.4702967401
 C        -8.7299900437        5.1972913957       -4.1012460347
 O        -7.6789530066        5.0132784958       -3.5838215961
 C        -9.7480799985        4.1104262387       -4.2745020989
 C       -10.4955878108        4.1801416326       -2.8752042203
 O       -11.2765384817        5.1731252316       -2.6837039545
 C       -10.0984902832        3.3151287048       -1.7218583894
 C       -10.7516637220        4.3799087419       -5.4519931202
 C        -8.9935096506        2.7710803726       -4.4917838933
 C        -9.1934238270       10.5077865102       -1.3080313735
 C        -6.9449891940        9.8367506601       -2.2552428777
 C        -8.7964831153        7.8236224703        3.3456957447
 C        -8.1616961413        5.2945450981        3.4472323553
 C       -14.5903115679        2.7069661532        0.5408810300
 C       -15.4180010467        3.3668271419        2.9129363469
 C        -8.7328881414       -0.9911754773        3.1488536071
 C        -7.1826191714        0.8954096448        3.6307842685
 C        -9.1573912634       -3.2194090946       -2.3276915825
 C       -10.7258858316       -1.7648738702       -3.5694448708
 H       -11.8269359311       -4.1004971868       -1.8533657924
 H       -12.8998881268       -2.7267484335       -2.3010514782
 H       -12.7639603179       -3.3319869464       -0.5767898349
 H        -7.2970318352        0.3275458281       -1.4622043314
 H        -7.1606965901       -1.4273342214       -1.6787517879
 H        -7.2558534980       -1.5269994032        0.6805676620
 H        -8.9915876372       -1.3367515296        0.5022882150
 H       -11.4638702747        0.6228519863        3.5956549672
 H       -11.0849773892       -0.2639672342        2.1702063513
 H       -12.3153796329        1.0432910323        0.9151786066
 H       -11.5014200669        2.5520948802        1.3589510360
 H       -13.1590928534        4.4773738676        3.9325842235
 H       -13.1610341608        6.0521594456        3.0916150491
 H       -10.7523316788        4.1195107655        3.2904576101
 H       -11.0592871259        5.3124332282        4.4954526720
 H        -6.3931622109        5.8555400054        1.0161937869
 H        -6.6991997699        7.3934386108        2.0073124881
 H        -7.1285461789        7.1097825454       -1.0928997801
 H        -5.7478443091        8.0644747482       -0.3920367841
 H        -7.3268629641        7.3156347190       -3.6531079287
 H        -8.1631937329        8.6803198107       -4.4870724359
 H        -9.1002785788        6.6999148750       -5.5216299030
 H       -10.1886173288        6.8253608521       -4.1561437248
 H       -10.9588092026        2.9062099425       -1.2320415026
 H        -9.6569313369        3.9299355164       -0.9735128699
 H        -9.5175963652        2.4902907572       -2.0190557228
 H       -10.3565589680        4.1326688781       -6.4719157210
 H       -11.1831435775        5.3443235192       -5.4779869227
 H       -11.5700363693        3.6861821032       -5.4054343564
 H        -8.5072884963        2.6495467185       -5.4875885152
 H        -9.7089752055        2.0314750486       -4.3686694267
 H        -8.1592515754        2.8139986318       -3.7740218275
 H        -9.4522657784       11.0843196300       -2.1948072274
 H        -8.7083150433       11.1840439573       -0.6608085007
 H       -10.1515642463       10.1354847832       -0.8984038370
 H        -6.4447716755        8.9602531002       -2.5481989970
 H        -6.4630141771       10.4672639495       -1.5259995683
 H        -7.2036720629       10.4936004460       -3.1327669676
 H        -9.7178329721        8.0233275754        3.9678313628
 H        -8.6451965909        8.6933963294        2.6523915987
 H        -7.9435024191        7.8020424774        4.0624101524
 H        -8.2707408624        4.2536329650        3.1937383215
 H        -8.4972056138        5.2520617724        4.5185270110
 H        -7.1454569341        5.6188415778        3.5948764074
 H       -15.4623404066        3.3347857755        0.2564544328
 H       -14.8503796553        1.6940014060        0.4589369436
 H       -13.8489983388        2.9034584522       -0.2311224444
 H       -15.9456231053        4.2635032758        2.5416413060
 H       -15.1755041558        3.2830020649        3.9027370939
 H       -16.0687777531        2.4902359876        2.6777428657
 H        -7.8761193494       -1.6155998149        3.1866104719
 H        -9.4963114300       -1.5652858803        2.5230680772
 H        -9.0918370269       -0.7842861103        4.1920937636
 H        -6.7074968778        1.8455981484        3.4364919096
 H        -6.4087413302        0.1275314068        3.5867657838
 H        -7.6236075331        0.9525054383        4.6224250466
 H        -9.7207099999       -3.9767938563       -2.8424347123
 H        -8.8234306873       -3.5930292699       -1.3583950169
 H        -8.2341606369       -2.9664899396       -2.8475028479
 H       -11.2528807755       -2.6629312114       -3.8252961387
 H        -9.9423091808       -1.6428622718       -4.3362322792
 H       -11.3602507122       -0.9224027054       -3.5918413558
 Na      -11.3171262425        6.1101770896       -0.5302644196
