117

 C       -12.5340440577       -3.0166674598       -1.3622366820
 C       -11.2017128789       -2.2482808434       -1.0266715324
 O       -11.0767903354       -1.6912098875        0.0463002165
 C       -10.1478896996       -2.0537657996       -2.1966786903
 C        -9.3162138908       -0.7687942907       -1.8124770567
 O        -9.7139340611        0.3408592835       -2.1512134061
 C        -8.0026798252       -0.9797760289       -0.9669148342
 C        -8.1475852918       -1.0890280773        0.5632565486
 C        -8.0852889768        0.2743448191        1.2402294686
 O        -7.7884376298        1.2486042917        0.5774349366
 C        -8.4978061997        0.4468002019        2.7371893016
 C        -9.7981524054        1.2802882201        2.5659932190
 O        -9.7573016346        2.5052538366        2.5166777773
 C       -11.1964749783        0.5474819080        2.2784258348
 C       -12.2095504555        1.4659123080        1.6157391292
 C       -13.2286547712        2.1172647109        2.6434020660
 O       -13.2262277907        1.7558115808        3.7932299921
 C       -14.1678161630        3.2566359490        2.0821318118
 C       -13.2620877641        4.5084421267        1.8151674204
 O       -13.0002974831        4.9136167693        0.7364265552
 C       -12.8482989375        5.3444943431        3.1453406929
 C       -11.3075010944        5.3263732802        3.2818752901
 C       -10.5693139027        6.3488149928        2.3970362801
 O       -11.1967237120        7.2107820211        1.8369123723
 C        -9.0164506449        6.4722259532        2.4940920488
 C        -8.3616097284        6.5138349694        1.1356554908
 O        -8.8692151793        6.0013379590        0.1451753823
 C        -6.9151428998        6.9050568946        1.0485886461
 C        -6.6215387488        7.7355904656       -0.2635844910
 C        -7.6147825529        8.8355866723       -0.3808686519
 O        -8.0951701914        9.2729897441        0.6527763897
 C        -8.1043095608        9.3964348137       -1.8137641118
 C        -8.7516558493        8.2018986723       -2.5038635406
 O        -9.7459046830        7.7178924916       -1.9831890218
 C        -8.2866548682        7.7352702488       -3.8731183412
 C        -9.1069286349        6.5405887292       -4.3830006459
 C        -8.5535410502        5.1284820780       -4.0617667128
 O        -7.3687436709        4.9722839906       -3.7994317033
 C        -9.5650378167        3.9780857022       -4.0430089330
 C       -10.1015933396        4.0162639269       -2.5404362591
 O       -11.1776040581        4.6815515527       -2.3699536855
 C        -9.3214649879        3.4931685243       -1.3864458636
 C       -10.7093015542        4.1593386771       -5.0626347494
 C        -8.7538603391        2.6409197924       -4.2259128077
 C        -9.2254036432       10.4157785920       -1.5337886495
 C        -6.9128763996       10.0195056461       -2.5680222478
 C        -8.7444896336        7.7445081676        3.2726469070
 C        -8.3828132545        5.2723222615        3.3110166629
 C       -14.7391006038        2.8585035416        0.6893592399
 C       -15.3756952606        3.4575148059        3.0124385473
 C        -8.6120840493       -0.8702868939        3.6567425853
 C        -7.4637635890        1.3400905236        3.4881090174
 C        -9.3014199175       -3.3541962058       -2.2629357219
 C       -10.7445719158       -1.8554885424       -3.6320677743
 H       -12.4262644961       -3.6820790125       -2.2196638570
 H       -13.3426175841       -2.3240975690       -1.5150634835
 H       -12.5238378766       -3.6952988191       -0.4977548790
 H        -7.3845871338       -0.1181423051       -1.1282697452
 H        -7.4058639498       -1.8052558090       -1.3833293530
 H        -7.3868158065       -1.8016797107        0.8788380982
 H        -9.1224106090       -1.5156856418        0.8543269176
 H       -11.6110649585        0.2257676540        3.2403308600
 H       -11.0449769852       -0.3315352562        1.6831944617
 H       -12.7807226211        0.8989760224        0.8809369333
 H       -11.7180796893        2.3358990998        1.1445606636
 H       -13.2592534831        4.8946884091        4.0434926891
 H       -13.1550065458        6.4092676649        2.9406141739
 H       -10.9172852055        4.2828356265        3.1397432386
 H       -11.1133827821        5.6345066763        4.3069239353
 H        -6.3123058746        6.0137341086        0.9634380557
 H        -6.6716891427        7.4091513568        2.0290028118
 H        -6.7927115888        7.0445245120       -1.0936420707
 H        -5.5613823895        8.0570628904       -0.2654656734
 H        -7.2473664419        7.4905702720       -3.7966301998
 H        -8.4387551329        8.4785915218       -4.6331000368
 H        -9.1900000295        6.6997668283       -5.4403515133
 H       -10.1821656845        6.6095515173       -4.0445791763
 H        -8.8464518854        2.5526747125       -1.6515809295
 H       -10.0189002945        3.3308461663       -0.5725301208
 H        -8.4512031005        4.1614465412       -1.1873890821
 H       -10.4877911094        5.0449373747       -5.7046265013
 H       -11.7529300617        4.3334873303       -4.7395302541
 H       -10.7932074048        3.3042399770       -5.7007749571
 H        -8.5513879394        2.5422750713       -5.2721867808
 H        -9.4336179207        1.8123097158       -3.9734514886
 H        -7.8078215967        2.6568675459       -3.5787236076
 H        -9.8506405086       10.7070398582       -2.3772311952
 H        -8.8496887200       11.2657309873       -1.0408740983
 H        -9.9041472635        9.8757620532       -0.7562074947
 H        -6.1687172000        9.2611971516       -2.6962081358
 H        -6.4051069665       10.7213160371       -1.9156970802
 H        -7.3053793063       10.5620359583       -3.5087074347
 H        -8.5959553623        7.5199169210        4.3667937309
 H        -9.6104576743        8.4000576689        3.1890814556
 H        -7.9304579586        8.2875741658        2.8585993948
 H        -8.5462095371        4.2920181982        2.8611401959
 H        -8.8638367602        5.1682912185        4.3129673220
 H        -7.3244780973        5.2870601079        3.3852654038
 H       -15.2835982590        3.7058987185        0.2008194109
 H       -15.3214240575        1.9950495973        0.6981290926
 H       -13.9439359624        2.7670704125       -0.0649145806
 H       -16.1704287788        3.9380630782        2.4536119332
 H       -15.1010867661        3.9945516317        3.8851910314
 H       -15.6503011768        2.3963921696        3.1395116799
 H        -7.7488453052       -1.4623428554        3.6132905262
 H        -9.5685247638       -1.5238189043        3.6512296676
 H        -8.5953084948       -0.4846291969        4.6961467128
 H        -7.4710953645        2.3339716179        2.9848017786
 H        -6.4848859012        0.8650206693        3.4475262028
 H        -7.7796590732        1.6190682857        4.4950795029
 H        -9.9755263628       -4.1699888771       -2.4907230470
 H        -8.8635923436       -3.5871272094       -1.3025505971
 H        -8.5217099669       -3.2650577434       -3.0214474400
 H       -11.3645257997       -2.7683059666       -3.8105357132
 H        -9.9204030274       -1.8475808108       -4.3879581922
 H       -11.3665155377       -0.9345886003       -3.7488971296
 Na      -11.2293402664        6.1665854726       -0.4571015161
