117

 C       -12.6586617121       -3.1112363484       -1.4103749742
 C       -11.3500518496       -2.3237522355       -1.0515465177
 O       -11.1569450650       -1.9046404327        0.0780254013
 C       -10.1856366063       -2.2187787243       -2.1118292320
 C        -9.2260210513       -0.9701174371       -1.7338372986
 O        -9.5375981846        0.1328435650       -2.1155027463
 C        -7.9394489268       -1.1423846635       -0.9171016384
 C        -8.2463281777       -1.1359182870        0.6467789330
 C        -8.1775020461        0.2907272829        1.1667863009
 O        -7.7751990179        1.2411944501        0.5064185356
 C        -8.6547538175        0.5445194060        2.6258371114
 C       -10.0093988593        1.3878983151        2.4734744184
 O        -9.9950481744        2.6034069981        2.2697777457
 C       -11.2788018744        0.5217361899        2.4713667799
 C       -12.3840726375        1.2331298696        1.6153555414
 C       -13.1465720308        2.2127122711        2.5115268812
 O       -13.0568401657        2.1232654840        3.7006380189
 C       -14.1481729742        3.3378086218        1.9874595498
 C       -13.3296307189        4.6336329478        1.8045620497
 O       -12.8484710427        4.7887511705        0.6365631328
 C       -12.9209825947        5.5320182948        3.0203260112
 C       -11.3849486728        5.4280693326        3.2939866004
 C       -10.5499540714        6.3554059205        2.4365346212
 O       -11.1686534739        7.1021703194        1.6815631217
 C        -8.9182391025        6.5023336447        2.5332355189
 C        -8.2643224545        6.5241321904        1.1680974587
 O        -8.8991218470        6.1384805571        0.2067746092
 C        -6.7844054643        6.9189501329        0.9647107608
 C        -6.7286310402        7.7308005712       -0.3453368223
 C        -7.7001224017        8.9347367523       -0.3619961297
 O        -7.9808007919        9.4640690949        0.6714922777
 C        -8.2230253125        9.3835630439       -1.8432255406
 C        -8.8834368706        8.1547256619       -2.5294345345
 O        -9.8779244762        7.6135099681       -2.0653589911
 C        -8.3304473446        7.6664737397       -3.8656124660
 C        -9.1410870892        6.4641215297       -4.5390886629
 C        -8.5046809213        5.1347372968       -4.1171797648
 O        -7.3381658352        5.0879982905       -3.8358401545
 C        -9.5009274972        3.8679555321       -3.8762703677
 C        -9.9512447991        4.1238014744       -2.3496714436
 O       -10.9798557721        4.6556570724       -2.1245908248
 C        -8.9539888648        3.6022565581       -1.3292650846
 C       -10.6847858700        3.8454846535       -4.8653698244
 C        -8.6772851779        2.5651309843       -4.0658190858
 C        -9.0521814786       10.6424487862       -1.5441516451
 C        -6.9485315784        9.8610416561       -2.5508660312
 C        -8.7320630717        7.8966498582        3.3137210025
 C        -8.3315542428        5.3420563044        3.3428060251
 C       -14.8704411482        2.8671205224        0.6785973290
 C       -15.1973509045        3.4647009088        3.1290855201
 C        -8.8386937452       -0.7379572813        3.4429726060
 C        -7.5870120298        1.4681981378        3.2555806929
 C        -9.4262792750       -3.5445135091       -2.0987705564
 C       -10.8437512547       -1.8443940787       -3.4828091380
 H       -12.5074025545       -3.7725275451       -2.2623900742
 H       -13.1448760456       -2.2433803681       -1.8362946913
 H       -13.0479920129       -3.6542512388       -0.5727042336
 H        -7.2763511401       -0.2565724449       -1.1625693645
 H        -7.3896717600       -2.0282439627       -1.2767217632
 H        -7.4747182581       -1.7822480729        1.1353929442
 H        -9.2241809347       -1.6548822407        0.7438052461
 H       -11.6206527035        0.4672802897        3.5239057710
 H       -11.0215744268       -0.4944767768        2.0934214932
 H       -13.1618110099        0.5247498703        1.2702663596
 H       -11.9969706538        1.8170200735        0.7866002299
 H       -13.4220043566        5.0415784763        3.8443891331
 H       -13.2483844064        6.5215656195        2.8459939268
 H       -11.0608425800        4.4543805308        3.0009320405
 H       -11.1594929318        5.5453877631        4.3666486033
 H        -6.3259327714        5.9303156144        0.6522673196
 H        -6.2458283748        7.3119893808        1.8233478298
 H        -6.8446784864        7.0052221896       -1.1751430681
 H        -5.7126982851        8.1665474397       -0.3867898970
 H        -7.2430828384        7.3866382499       -3.7602796078
 H        -8.4551531915        8.5208229574       -4.5831250265
 H        -9.1272434134        6.5638725428       -5.6432237900
 H       -10.1883774813        6.5324508278       -4.3479438005
 H        -8.6785297416        2.5515043167       -1.4376003722
 H        -9.3923988194        3.7693534645       -0.3695308331
 H        -8.0587268532        4.1062567211       -1.5004415350
 H       -10.4214018937        4.0528157616       -5.8817931019
 H       -11.3953434848        4.5807224286       -4.6222495976
 H       -11.2764278604        2.9209665329       -4.7486011516
 H        -8.5681618929        2.5003562737       -5.1790477701
 H        -9.1632491368        1.7115272076       -3.6735134187
 H        -7.7792833778        2.7117038092       -3.5874570671
 H        -9.2921580353       11.0995677647       -2.5022169621
 H        -8.4314856275       11.3404773559       -0.9198143022
 H        -9.9258128067       10.5014591920       -1.0320036261
 H        -6.2186414568        9.0452695147       -2.7055569688
 H        -6.3493241356       10.5044559539       -1.8958869634
 H        -7.1895788187       10.3477060914       -3.4553147080
 H        -8.8123469398        7.7726720812        4.3768030220
 H        -9.5390683000        8.5823877283        2.9547555967
 H        -7.7502484947        8.3822662398        3.0056322215
 H        -8.3962247049        4.3410517718        2.9252440682
 H        -8.6656117480        5.3384932026        4.3500013769
 H        -7.2105022580        5.3856367992        3.3034967004
 H       -15.7405608641        3.3756939135        0.3760347295
 H       -15.2603023546        1.8354931271        0.9155914852
 H       -14.3279276221        2.7947370215       -0.2214497602
 H       -15.6614461260        4.4596329517        3.1028234036
 H       -14.4962834764        3.5366896171        3.9306185105
 H       -15.8046119666        2.5744836744        3.1249497804
 H        -8.0182591062       -1.5000621834        3.2318155013
 H        -9.7541204581       -1.1713690426        3.1849944470
 H        -8.9223938953       -0.7098421668        4.5371201025
 H        -7.2092472894        2.1777757441        2.5582420289
 H        -6.7907770182        0.8896490820        3.7309979896
 H        -8.0721497944        2.0726984567        4.0230995941
 H       -10.0662702412       -4.2854075931       -2.5785130332
 H        -9.2999973681       -3.8715622083       -1.0589551113
 H        -8.4994441140       -3.5065720277       -2.6564469453
 H       -11.5205993916       -2.6082346865       -3.7827608179
 H       -10.1009278299       -1.7018952097       -4.2460150506
 H       -11.3784974319       -0.9411918105       -3.3497744454
 Na      -11.0554799527        6.1976689284       -0.3725137382
