117

 C        -1.6013592534        2.8911759506        8.1329025630
 C        -2.7313911156        3.8184653373        7.8064859176
 O        -3.6779776917        4.1065796713        8.5640052934
 C        -2.7697306553        4.4470180873        6.2838504785
 C        -3.9174006560        3.7499783701        5.6712811120
 O        -3.7238658597        2.7660509715        4.9967949932
 C        -5.4019434767        4.0335268645        6.1413402936
 C        -6.4122189700        3.2733959163        5.1571367585
 C        -7.6839275675        4.0841465485        4.9335892456
 O        -7.8160095720        5.1807509733        5.3984234831
 C        -8.9918544819        3.2777798497        4.1355026022
 C       -10.1642987589        4.2830949788        3.7414444180
 O       -11.3115095281        4.0141263023        4.1373051058
 C        -9.7950753750        5.4502308726        2.8211598877
 C       -11.0055943485        6.2266315570        2.3596914152
 C       -11.4857246253        5.5969684617        1.0026038425
 O       -10.9581017002        4.6354228088        0.5268889315
 C       -12.7830344791        6.2452303626        0.3438864826
 C       -13.6004797469        5.1181997796       -0.4935417058
 O       -13.1691524199        4.8462976417       -1.5768558018
 C       -14.7534505490        4.4081597154        0.2511341058
 C       -15.0945015958        2.8967471873       -0.2357990572
 C       -13.7911003451        1.9932856661       -0.4627070460
 O       -12.7718568425        2.4057173872        0.0381181414
 C       -13.9804521008        0.6086968618       -1.2983549211
 C       -13.0508735418        0.7733539623       -2.5342175731
 O       -11.8601234565        0.9952733980       -2.3691271167
 C       -13.6555148965        0.5415906856       -3.9211411001
 C       -12.7740786467        0.6277350190       -5.1876328471
 C       -12.5287657608        2.0104900887       -5.6949692653
 O       -13.1091901979        2.9532059267       -5.1523630609
 C       -11.6262360432        2.3781798145       -6.9279174036
 C       -10.5372772252        3.3362346909       -6.3058053829
 O        -9.5993524438        2.7648616419       -5.7954987238
 C       -10.7508239957        4.8356384744       -6.0735589503
 C        -9.6591001991        5.6103239122       -5.3803005140
 C        -9.4992242311        5.1923086039       -3.9054573195
 O       -10.5185303050        5.1335997703       -3.2381479687
 C        -8.0398015150        5.0205167477       -3.1770801805
 C        -7.9579851448        3.4301547957       -3.0064682241
 O        -8.6285830278        2.9659709288       -2.1276404019
 C        -6.9089185183        2.6255154380       -3.7252309741
 C        -6.8941619084        5.6836700232       -4.0076070199
 C        -8.0882470745        5.6922479048       -1.8577602269
 C       -10.9275469412        1.1715160136       -7.4809887210
 C       -12.5891568443        3.0782685783       -7.9411191210
 C       -13.4957222547       -0.6059458148       -0.3789951887
 C       -15.4351456461        0.2901197451       -1.6691791234
 C       -13.6415081826        7.2166611652        1.1100686123
 C       -12.1086085169        7.1246677455       -0.7899979827
 C        -8.4213767341        2.5019306704        2.8910155029
 C        -9.5258482623        2.0915306390        4.9515537195
 C        -3.1429290062        5.9531898631        6.4133615291
 C        -1.4848120940        4.3294087194        5.4582729178
 H        -1.6021902604        2.0586956040        7.5270876998
 H        -1.8189445261        2.4639614824        9.1431130731
 H        -0.6452906809        3.2682905812        7.9806877697
 H        -5.6824265952        5.1094875155        6.1253575002
 H        -5.4667806269        3.7259714222        7.1528481885
 H        -6.7540212035        2.2549205967        5.3771153833
 H        -5.8838287989        3.2397651586        4.2431358520
 H        -9.2391320096        5.0806846200        1.9386722100
 H        -9.0277565622        5.9619943594        3.3524002568
 H       -10.8843240238        7.3404798741        2.2583817691
 H       -11.8768163827        6.0257588023        3.0438554910
 H       -15.7769705669        4.9003565293        0.1411064783
 H       -14.5742422398        4.4700177320        1.3202910147
 H       -15.7233311376        2.9780602720       -1.1247423234
 H       -15.7601041936        2.5173947605        0.6358535651
 H       -14.4361590275        1.3397331758       -3.9382965627
 H       -13.9373951911       -0.4910786319       -3.8292774554
 H       -13.3407717922        0.1112702485       -5.9372418599
 H       -11.8872288983        0.0647818846       -5.0475196969
 H       -11.6496952774        5.0452853067       -5.4866960009
 H       -10.9202901025        5.2613114968       -7.0913124852
 H        -9.8698568788        6.6551436223       -5.3292081921
 H        -8.7481890751        5.6312589582       -5.9314450604
 H        -7.2793598322        1.6324539779       -3.5313713152
 H        -6.0271396117        2.7515112858       -3.1055244919
 H        -6.6817676329        2.8124983211       -4.7111694233
 H        -7.1093755206        6.7069224784       -4.1075808002
 H        -6.8054816166        5.3611717150       -5.0979720265
 H        -5.8969189702        5.5473859654       -3.4786424422
 H        -9.0726520141        5.3384656530       -1.3632194299
 H        -8.1027264806        6.7862651977       -1.9342578076
 H        -7.2364532907        5.2746649935       -1.1887925759
 H       -11.5946359475        0.5098186404       -7.9737449954
 H       -10.4143323481        0.6510154058       -6.7016538571
 H       -10.2590476396        1.5513313572       -8.2720666607
 H       -12.7624991514        4.1319162139       -7.9143187936
 H       -13.6040430605        2.6530478274       -7.8593546381
 H       -12.1160455082        2.8729240969       -8.9110886433
 H       -13.8499254329       -0.4460468277        0.6425286247
 H       -12.4385793575       -0.5019581529       -0.2587272411
 H       -13.8859698905       -1.5560498120       -0.6635542657
 H       -15.9021024399        0.2971805580       -0.6655714030
 H       -15.4859825779       -0.7583545498       -2.0090769586
 H       -15.9529605864        1.0564731219       -2.2905922774
 H       -14.6116534096        7.1643713827        0.6352232803
 H       -13.2419273232        8.1649316439        1.1078409572
 H       -13.7158933603        6.8634323057        2.1455262419
 H       -11.4082376379        6.6829621199       -1.4383198778
 H       -11.6256118529        8.0102615409       -0.4226948899
 H       -12.9515689955        7.4756672281       -1.4004599877
 H        -7.9270660819        1.5875149539        3.1858564840
 H        -7.6711526723        3.0756784972        2.3455774828
 H        -9.2197257780        2.1910481666        2.2327735619
 H       -10.0278106531        2.4917681603        5.8036706788
 H        -8.7778342755        1.3044851037        5.0338021411
 H       -10.3011115171        1.5738226278        4.3822520645
 H        -4.0579717709        6.0673672196        6.9253722731
 H        -3.1806884059        6.4996929346        5.4971448232
 H        -2.3400577584        6.3771419618        7.0745982942
 H        -1.0353142644        3.3939327310        5.4719901867
 H        -0.8048293990        4.9956683226        5.8910986143
 H        -1.6688400115        4.4738981397        4.4016527364
 Na      -10.9984525670        3.4655840045       -1.4212690322
