117

 C       -12.8941484495       -3.1053441796       -1.3743974374
 C       -11.4675508913       -2.4884795885       -1.0437902431
 O       -11.2053926084       -2.1681529005        0.1034672493
 C       -10.2796466552       -2.4767130872       -2.0598587673
 C        -9.2391058725       -1.3201891145       -1.6053783017
 O        -9.5146188919       -0.1870885890       -1.9261100109
 C        -7.9938566234       -1.5958058382       -0.7311421681
 C        -8.2451017155       -1.3333018665        0.8204541202
 C        -8.3077003283        0.1624179595        1.1035637963
 O        -7.6976441377        0.9346587005        0.3890638211
 C        -8.8950448993        0.7331000022        2.3810284624
 C       -10.2933769786        1.3539463614        2.0801511853
 O       -10.3618029329        2.5974519084        1.9111880147
 C       -11.5335821874        0.4323641490        1.9342909895
 C       -12.8885511480        1.1851295259        1.8495149084
 C       -13.1602358768        2.4504051587        2.7127090206
 O       -12.6474321691        2.7233843165        3.7422081648
 C       -14.1460064969        3.5019963831        1.9126593941
 C       -13.1657877635        4.6635451267        1.6477407879
 O       -12.4811639395        4.7025415066        0.5941844016
 C       -12.8078124954        5.6664422389        2.7189037767
 C       -11.3141118774        5.5046732402        3.1123939025
 C       -10.4446867128        6.6199395137        2.4631994899
 O       -11.0245225442        7.3534021461        1.6796388258
 C        -8.8709402248        6.7421334492        2.7398704530
 C        -8.1323681344        6.6305431451        1.3114933195
 O        -8.7948120324        6.1270787818        0.4407105039
 C        -6.7371018798        7.1954802962        1.1441380294
 C        -6.5955046835        7.7836817586       -0.2831557256
 C        -7.5643826029        8.9553811916       -0.4901255364
 O        -7.9665301659        9.5528392597        0.4904061056
 C        -8.1343413902        9.2974584654       -1.9515184607
 C        -9.0415852098        8.1911930262       -2.6415622085
 O        -9.9752896118        7.6695533244       -2.0312484503
 C        -8.7532497378        7.5908546260       -4.0284703769
 C        -9.4934748830        6.3051325893       -4.2077166200
 C        -8.5324551018        5.0639396059       -4.0353211407
 O        -7.3324219918        5.2358390958       -3.9323450398
 C        -9.1910756971        3.6896228760       -3.7067284594
 C        -9.4524304616        3.9450892377       -2.1976126740
 O       -10.4278809007        4.5902520790       -1.8927812162
 C        -8.5631665325        3.3339011618       -1.1391326481
 C       -10.5456140409        3.5915770659       -4.5504907431
 C        -8.2318890668        2.5393636533       -4.0689110473
 C        -9.0061062619       10.5651431847       -1.7386351026
 C        -6.9090438987        9.6547630823       -2.8408367985
 C        -8.6185583331        8.1183756736        3.3952929498
 C        -8.3656119359        5.5822258573        3.5403287505
 C       -14.8879119836        2.9861920416        0.7810525814
 C       -15.1950057734        3.9691691624        3.0591315896
 C        -9.0125831861       -0.4004667461        3.4629757934
 C        -7.9914586377        1.8963354906        2.8766821628
 C        -9.6818766498       -3.9467924953       -2.0331452826
 C       -10.8803598191       -2.1176604798       -3.4298462433
 H       -12.8931525601       -4.2124124511       -1.4618933614
 H       -13.1964794856       -2.6079573605       -2.2573018242
 H       -13.4308241539       -2.8019787763       -0.4682644955
 H        -7.2589666203       -0.7718535584       -0.9593966457
 H        -7.6048665095       -2.6005314416       -0.9905860004
 H        -7.3803881073       -1.8151068705        1.3571382322
 H        -9.1507021611       -1.9116097841        1.0609516394
 H       -11.5408586733       -0.1257754260        2.8771511866
 H       -11.4121706541       -0.2299119837        1.0533314717
 H       -13.6924063424        0.4456011627        2.1052364928
 H       -13.1247049712        1.4826588815        0.8441364487
 H       -13.4212184086        5.4139485161        3.5616836683
 H       -13.0924555534        6.6737068731        2.3966542743
 H       -10.9038060590        4.5850404651        2.7639752123
 H       -11.1641974519        5.4938789831        4.2111754907
 H        -6.0767054952        6.2484706732        1.1828188951
 H        -6.3801331024        7.8180170490        2.0172497923
 H        -6.6931666535        6.9146794765       -0.9626692438
 H        -5.5343970374        8.1937335042       -0.4649546525
 H        -7.6867305173        7.3363464224       -4.1810303652
 H        -9.0492573280        8.4021125488       -4.7230757647
 H       -10.1191143155        6.2391191596       -5.0937852620
 H       -10.2338725084        6.2154699395       -3.4441107106
 H        -8.8110879292        2.2776968855       -0.9096778378
 H        -8.5629865256        3.9018718339       -0.2225384286
 H        -7.5750232081        3.3171618156       -1.4999610975
 H       -10.8879066375        2.5133702190       -4.6867021538
 H       -10.4291948198        4.0392276635       -5.4821822098
 H       -11.3966302801        4.1187753719       -4.0342100226
 H        -8.2441695076        2.5225513622       -5.2281652860
 H        -8.5356367073        1.6811185863       -3.5604414990
 H        -7.2260928542        2.7800392039       -3.7632795172
 H        -9.5095285392       10.9136207300       -2.6386265413
 H        -8.3504974983       11.3247978797       -1.3019061860
 H        -9.7650066167       10.4223168676       -0.9638599141
 H        -6.2490468896        8.8162391418       -2.9832692073
 H        -6.3856465810       10.4168963374       -2.2550026502
 H        -7.0300710565       10.0732269177       -3.8452489349
 H        -9.5070181590        8.3566781945        3.9705289246
 H        -8.4843189842        8.8788876302        2.5824218565
 H        -7.7746849033        8.1208102879        4.1461733709
 H        -8.5916834918        4.6260673517        3.1075881840
 H        -8.6850491367        5.6603162796        4.5569243861
 H        -7.2414265449        5.5159828168        3.6842352347
 H       -15.6474851315        3.6769855487        0.5086617823
 H       -15.4937470100        2.0994250776        1.0154542169
 H       -14.3199448625        2.6667424820       -0.0318980989
 H       -15.6482276603        4.8949364937        2.6361446238
 H       -14.6774551027        4.1846361094        3.8858513521
 H       -15.8972186949        3.1454710768        3.2255411796
 H        -8.0687065936       -0.9280891014        3.5647779695
 H        -9.6955949252       -1.2475501414        3.3897568264
 H        -9.1821580868        0.0006292154        4.4969491458
 H        -8.0261475378        2.7459902099        2.2445385008
 H        -6.9198885040        1.5999780445        2.9694829729
 H        -8.2997408014        2.0032995504        3.9334069787
 H       -10.2940332786       -4.6029598771       -2.6154544233
 H        -9.5200383843       -4.3079886396       -1.0096693116
 H        -8.7520106617       -3.9239540736       -2.5746182206
 H       -11.6234304329       -2.8452947608       -3.8356400623
 H       -10.0362283013       -1.9597036376       -4.1868423561
 H       -11.3746989747       -1.1655034553       -3.2478190458
 Na      -11.3133659173        6.2991046093       -0.4364122464
