117

 C       -12.8676581284       -3.0001661749       -1.3044804116
 C       -11.4614395278       -2.5755037848       -0.9161089190
 O       -11.2285388416       -2.1862614420        0.2151706518
 C       -10.3310701379       -2.6310339524       -2.0288509155
 C        -9.4068942036       -1.4920656300       -1.5766693476
 O        -9.6537329684       -0.3321752369       -1.8631729725
 C        -8.2501232989       -1.8902265627       -0.6011304949
 C        -8.5061531934       -1.4214917950        0.8851776735
 C        -8.3378136843        0.0492496799        1.0548053549
 O        -7.5742874018        0.7225031119        0.3575287840
 C        -8.9267189832        0.7658776415        2.3677215194
 C       -10.4628192269        1.3199935680        1.9328008213
 O       -10.6084536597        2.4122718229        1.5352975823
 C       -11.6663945479        0.4352119303        2.2750240216
 C       -12.9603901412        1.0957222536        1.7573910192
 C       -13.2188522141        2.4410224379        2.4931133110
 O       -12.6758461797        2.6259079212        3.5835638694
 C       -14.1845206272        3.6011335688        2.0474684537
 C       -13.1811378989        4.7664572683        1.6317241547
 O       -12.7296660889        4.8491839770        0.5276142499
 C       -12.7290161944        5.7470840954        2.6397841247
 C       -11.2658377417        5.7567347528        3.0401373574
 C       -10.3778449929        6.8370844584        2.4245507617
 O       -10.8457624445        7.7101215286        1.7088071345
 C        -8.8831122588        6.9105429583        2.6670544816
 C        -8.1854823175        6.7348482780        1.3348452908
 O        -8.7030337708        6.0772667513        0.4213734354
 C        -6.7509892511        7.2673842812        1.0706983773
 C        -6.6094897518        7.8528219691       -0.3527113187
 C        -7.6039472007        8.9686906979       -0.5460706391
 O        -8.0504586976        9.5179435178        0.4201437039
 C        -8.0897756314        9.3241013056       -2.0267914142
 C        -9.0793953544        8.1471996219       -2.4596236029
 O        -9.8977978612        7.7888526269       -1.6626265044
 C        -8.9667802683        7.6859726218       -3.9301573499
 C        -9.5102164317        6.2255671669       -4.2711688876
 C        -8.4756367290        5.1411814912       -4.0443678743
 O        -7.2906028993        5.2832725605       -4.0929988757
 C        -9.1067402073        3.6242195776       -3.7021136475
 C        -9.4253621152        3.7565259293       -2.1621249375
 O       -10.3820119827        4.4495007302       -1.8054064805
 C        -8.4559101991        3.1045976158       -1.2334814483
 C       -10.3932582163        3.2160065497       -4.4575518449
 C        -8.0247634022        2.5421495047       -3.9629159466
 C        -8.9483193813       10.5696714834       -1.9781819570
 C        -6.9231771300        9.5747725875       -2.9567036496
 C        -8.6137369549        8.2729370059        3.4102796083
 C        -8.3249446135        5.8052027513        3.6736299452
 C       -14.8876883062        3.2899705511        0.7605109247
 C       -15.1786232317        3.9071959085        3.1879989303
 C        -9.0572983467       -0.1509627821        3.5942232974
 C        -8.0283155167        1.9139951010        2.7529712075
 C        -9.6461050065       -4.0151946922       -2.0790009720
 C       -10.7541735005       -2.3146666021       -3.4654833832
 H       -12.6094738283       -3.9632456161       -1.6903452728
 H       -13.2514105919       -2.2996255181       -2.1183275475
 H       -13.5261104273       -3.0459619187       -0.4517654354
 H        -7.2877798173       -1.4503926628       -0.8205687904
 H        -8.1993558317       -2.9708144983       -0.6037236010
 H        -7.7623893241       -1.9813184170        1.4304939101
 H        -9.4783503944       -1.8407501857        1.1649774869
 H       -11.7179855958        0.3193297084        3.3667982915
 H       -11.5201436746       -0.5226551514        1.7695665857
 H       -13.7940772720        0.4492889857        2.0050326180
 H       -13.0296570871        1.2131741650        0.6494557835
 H       -13.4396383814        5.7668519904        3.4870785094
 H       -12.9089405377        6.7314826425        2.2003013468
 H       -10.6306372970        4.8578452125        2.8650414184
 H       -11.2185070826        5.9224096189        4.1032147084
 H        -5.9584494035        6.5776757570        1.1992800326
 H        -6.5083051601        8.0204370961        1.7687572752
 H        -6.8466657295        7.0455353527       -1.0626942420
 H        -5.6015330840        8.0502175024       -0.5177509466
 H        -7.9212223556        7.7126662997       -4.2789816956
 H        -9.5307185051        8.4393435586       -4.5100673145
 H        -9.8105706366        6.1622795932       -5.3379027367
 H       -10.4868330155        5.9732102275       -3.7634984171
 H        -8.4327876905        2.0779308956       -1.4808585874
 H        -8.8260063318        3.1140007252       -0.2089114153
 H        -7.4398321149        3.5512510443       -1.1500009728
 H       -11.0431454748        2.7218495055       -3.8136326118
 H       -10.0550080670        2.5724462886       -5.3248090566
 H       -10.9578209829        3.9935429540       -4.9193193929
 H        -7.8089446073        2.5713087493       -4.9875392830
 H        -8.3551521979        1.5381627165       -3.6184347700
 H        -7.1051051755        2.8017595516       -3.4911582912
 H        -9.6200243553       10.7631619703       -2.8113702157
 H        -8.2911261630       11.4572797152       -1.8131895679
 H        -9.5308640023       10.4718735200       -1.1074233245
 H        -6.3984770468        8.6125688422       -3.1606541917
 H        -6.2400743285       10.3685712640       -2.6264509737
 H        -7.1371284695        9.9147489996       -3.9548423304
 H        -8.8812905910        8.1328883610        4.4853393389
 H        -9.2550302216        9.0275563543        2.9534922741
 H        -7.5707901941        8.5732418375        3.3888732622
 H        -8.4893476387        4.7537678616        3.3184009330
 H        -8.8066491251        5.9040643111        4.6672060073
 H        -7.3121510032        5.9005455990        3.9652393084
 H       -15.7089310733        3.9760542998        0.5834206062
 H       -15.2267824284        2.2684759412        0.5750166478
 H       -14.1433544589        3.3017358971       -0.0402504882
 H       -15.7343608107        4.7605576011        2.8740771307
 H       -14.6935111169        3.8700972374        4.2552467148
 H       -15.8287708102        3.0361734183        3.1244956999
 H        -8.1237885533       -0.6348098101        3.9837701974
 H        -9.6293661437       -1.0342056324        3.4634272175
 H        -9.4171737285        0.3633416603        4.4394395156
 H        -7.7703658470        2.3233301500        1.7641214353
 H        -7.1165128442        1.5541884379        3.1559894897
 H        -8.4509542191        2.5765870201        3.4710236261
 H       -10.3487984984       -4.7211257821       -2.5618020448
 H        -9.4537519413       -4.3500939379       -1.0783107116
 H        -8.7093542154       -4.0144202241       -2.6501929356
 H       -11.4869797115       -3.0255386170       -3.7676712920
 H        -9.9285505481       -2.4557399993       -4.0657662363
 H       -11.1420172741       -1.3073751827       -3.5929413180
 Na      -10.8676068693        6.4350085537       -0.2943770101
