117

 C       -12.9600608256       -3.0583426524       -1.3767258675
 C       -11.5118549110       -2.6594881426       -0.9674786777
 O       -11.3430749358       -2.2781748943        0.1756672494
 C       -10.3452204948       -2.6893555925       -1.9776708331
 C        -9.3655101256       -1.5419184189       -1.4996716096
 O        -9.5524924670       -0.3783442201       -1.7842950150
 C        -8.2605888965       -1.9249328129       -0.5011479215
 C        -8.5610814539       -1.4283190078        0.9826179038
 C        -8.3550049413        0.0302607088        1.1174918470
 O        -7.5893855049        0.6683146300        0.4014968532
 C        -9.0368615522        0.7777496200        2.2886337485
 C       -10.4340689656        1.2639790467        1.9444025719
 O       -10.4760144642        2.3473521038        1.3577623970
 C       -11.7228658342        0.4572949427        2.3577527137
 C       -12.9055689168        1.1043148008        1.7289579881
 C       -13.2239890642        2.4115148029        2.5337641783
 O       -12.6577354676        2.5694937340        3.5828009242
 C       -14.1396657672        3.5952405827        1.9367994002
 C       -13.1334518339        4.8711855825        1.6415264991
 O       -12.8041907906        5.0065799210        0.4424865364
 C       -12.7129941911        5.9309964351        2.7803976744
 C       -11.2482942778        5.8477397326        3.0762283461
 C       -10.3697896687        6.9180448064        2.3846352735
 O       -10.8929675875        7.8182968647        1.7376617304
 C        -8.8113527521        6.9699190303        2.7190678410
 C        -8.0784500813        6.7551905242        1.3657772511
 O        -8.6358262056        6.1121033291        0.4924241681
 C        -6.6532726831        7.3108487005        1.0405969973
 C        -6.6391294488        7.7677422627       -0.3891288086
 C        -7.6335288827        9.0072686023       -0.5639842142
 O        -8.1342953905        9.5619646396        0.3881272043
 C        -8.0658585113        9.3403617418       -2.0223389243
 C        -9.0263638900        8.1437124345       -2.4150693758
 O        -9.9201188934        7.8312102103       -1.6202003428
 C        -9.0162736471        7.6341559760       -3.8541268785
 C        -9.5764818218        6.2156064319       -4.2390886950
 C        -8.5274358176        5.0529751849       -4.0797412226
 O        -7.3414633156        5.2990042441       -4.1324173185
 C        -9.0190661917        3.6606037902       -3.6940192001
 C        -9.3998987552        3.7707613303       -2.0921528142
 O       -10.3351974079        4.4320543182       -1.7938967109
 C        -8.5144439413        3.0463427826       -1.1395757715
 C       -10.3170740293        3.1552554550       -4.4263653090
 C        -7.8892028983        2.6509365597       -3.9514822799
 C        -8.9615401165       10.6117737158       -2.1416766619
 C        -6.8376398814        9.5365366807       -3.0034093599
 C        -8.5600282347        8.4103468753        3.3296417709
 C        -8.3573714566        5.8602872560        3.6682456749
 C       -14.9313915868        3.2646882290        0.6324699537
 C       -15.0324562753        3.9480034407        3.1435945899
 C        -9.1200822877       -0.1440927927        3.5368723577
 C        -8.2052423619        2.0603117944        2.6231670696
 C        -9.7133654092       -4.1155742706       -1.9992861097
 C       -10.8595255316       -2.3818393532       -3.4564423765
 H       -12.8571444887       -3.9713765924       -1.9537838829
 H       -13.3304966216       -2.1884895040       -1.9558136482
 H       -13.5687419162       -3.1318786968       -0.4861882347
 H        -7.3380777312       -1.4146008427       -0.7470803826
 H        -8.1304983457       -2.9529376767       -0.5035552547
 H        -8.0761387066       -2.0838660266        1.6150296222
 H        -9.6316091884       -1.6289582488        1.0553901881
 H       -11.8103185920        0.6575296414        3.4252135813
 H       -11.6751705842       -0.6042296802        2.1616835215
 H       -13.7339409929        0.4105414687        1.6554252936
 H       -12.7360133035        1.3980188400        0.6792335760
 H       -13.3911007079        5.7397452355        3.6575309720
 H       -13.0365139573        6.9798153510        2.5121640213
 H       -10.7419608486        4.9139646265        2.7501164792
 H       -11.0277564290        5.8841253113        4.1721069991
 H        -5.8639689196        6.5573736941        1.1741157522
 H        -6.3155905735        8.0634018694        1.6851115164
 H        -6.9322486772        6.9256040156       -1.0374676116
 H        -5.6300420292        7.9284584978       -0.6357429880
 H        -8.0256692012        7.7394248031       -4.2783392184
 H        -9.6551244454        8.3058308453       -4.3846627235
 H        -9.9727668126        6.3408948260       -5.3050983291
 H       -10.5068531234        6.0252441422       -3.7007445933
 H        -8.3418061961        1.9696570931       -1.4069763503
 H        -9.0676625900        2.9925798282       -0.1666704463
 H        -7.6169316063        3.5822162950       -0.8510059417
 H       -11.0501056422        2.8098524294       -3.7074389475
 H        -9.9954408512        2.4268522707       -5.1116642504
 H       -10.8290610777        3.9061226717       -5.0686116222
 H        -7.6537813587        2.6566131596       -5.0994789761
 H        -8.2776877556        1.6796689194       -3.6577596910
 H        -6.9635314400        2.8674053848       -3.4735881061
 H        -9.3257526536       10.6881224724       -3.1821603510
 H        -8.3601228458       11.5556666555       -1.9769365652
 H        -9.8166547193       10.5711765925       -1.5225912295
 H        -6.2010531079        8.6123448022       -3.1499721207
 H        -6.2441854173       10.4600264886       -2.7355647323
 H        -7.0494920523        9.7974450184       -4.0196723220
 H        -8.7170088455        8.4911200187        4.3427113357
 H        -9.2595686385        8.9935569920        2.7833766001
 H        -7.5690386542        8.7803085108        3.0927010703
 H        -8.4667354112        4.8929964991        3.1470116088
 H        -8.8313790995        5.7573850858        4.6111733910
 H        -7.3052960364        5.9936971149        3.9739651762
 H       -15.6618629138        4.0714158786        0.4998240254
 H       -15.4996237242        2.2550216465        0.6949291725
 H       -14.4032566097        3.0364090751       -0.2986807816
 H       -15.5906391741        4.9210243287        2.9967117545
 H       -14.3566191883        3.8381440911        3.9312633652
 H       -15.7559952609        3.1160412757        3.2735449585
 H        -8.1950814647       -0.4334728094        4.0750641301
 H        -9.5121685737       -1.0900723884        3.3859390287
 H        -9.6732132962        0.3334735729        4.3155657207
 H        -7.8999632091        2.4744574921        1.6842293736
 H        -7.3003080401        1.7537864146        3.1629520049
 H        -8.7837010064        2.7283574209        3.2557107993
 H       -10.4594218764       -4.8264916678       -2.4084799431
 H        -9.3675707638       -4.4845610720       -1.0276644504
 H        -8.8586688587       -4.0725886228       -2.6708748603
 H       -11.6358204103       -3.1061255967       -3.5639234974
 H       -10.1462886615       -2.5677272511       -4.2328885920
 H       -11.2803490520       -1.4192465028       -3.5819358206
 Na      -10.7718029039        6.1771907895       -0.2224634832
