117

 C       -13.0789092172       -3.2214392044       -1.6016706962
 C       -11.7781748317       -2.7532214881       -0.9215302610
 O       -11.6857565244       -2.5066245875        0.2607635755
 C       -10.4569781772       -2.7991514386       -1.9028478980
 C        -9.3945517408       -1.7220998341       -1.3923939452
 O        -9.4651998370       -0.6034007115       -1.8835524587
 C        -8.2798718712       -2.1109709503       -0.3606804820
 C        -8.6304679077       -1.4769481386        1.0417687930
 C        -8.3108404891        0.0140269574        1.2427969350
 O        -7.5454602020        0.5929799429        0.4840534498
 C        -9.0963875603        0.8174425136        2.3817164455
 C       -10.4385751389        1.1949129776        1.7184865203
 O       -10.5513533363        2.1767480385        1.0376561685
 C       -11.7477556698        0.3899642030        2.0492130168
 C       -12.9529582961        1.2939558304        1.6567438211
 C       -13.1273018509        2.5846785238        2.5283958308
 O       -12.6732135476        2.7334575533        3.6625642289
 C       -14.0263605595        3.8330611233        1.9702154641
 C       -13.0879829624        5.0402743688        1.5522541634
 O       -12.8274477308        5.2617209945        0.4170727722
 C       -12.6256153412        5.9716091688        2.8193601233
 C       -11.1002557216        5.8494623610        3.0968437377
 C       -10.3770935728        7.0003610500        2.4262963449
 O       -10.9772160070        7.7889830083        1.7343528291
 C        -8.8029588381        7.1820208753        2.6473009688
 C        -8.0495682876        6.8395782497        1.3386252970
 O        -8.5330519171        5.9503394758        0.6250703937
 C        -6.6879400736        7.4409837232        1.0383567074
 C        -6.6053183515        7.9739314373       -0.4405169344
 C        -7.6809288691        9.0287006144       -0.6293038413
 O        -8.1631536938        9.6870708352        0.2473038756
 C        -8.0805637228        9.3267836964       -2.1903558954
 C        -9.0915801755        8.1568324109       -2.5255667633
 O        -9.8321499450        7.6231919363       -1.7461949068
 C        -9.0896715683        7.5802807079       -3.9312191227
 C        -9.7028503912        6.1769821291       -3.9436695245
 C        -8.6069648038        5.1755770993       -3.9686020850
 O        -7.4642281084        5.4485141667       -4.2487919431
 C        -8.9404029385        3.6387467467       -3.6245680185
 C        -9.3137904141        3.7281696842       -2.0953712649
 O       -10.3161541377        4.4528709089       -1.8792782788
 C        -8.6071040818        2.9896272201       -1.0010917293
 C       -10.1594180637        3.1809546597       -4.4043040658
 C        -7.6811771279        2.7657221552       -3.8418886341
 C        -8.8345571487       10.6316193051       -2.2247952532
 C        -6.8109244421        9.2976856957       -2.9866058304
 C        -8.4393406710        8.6322998621        3.2418505640
 C        -8.2634890638        6.1597264372        3.7208820352
 C       -14.7876051872        3.2822048984        0.6621399742
 C       -15.0815801875        4.1343818709        3.0219679328
 C        -9.0852095755        0.0237091537        3.6274616038
 C        -8.2482356931        2.1091949743        2.7830264376
 C        -9.8959111538       -4.2329959891       -1.8567367504
 C       -10.8255266637       -2.3512551970       -3.2968547254
 H       -12.7675684637       -3.9755825175       -2.2964970800
 H       -13.5806459579       -2.3414595749       -1.9850138327
 H       -13.7256156741       -3.5481728644       -0.7985368316
 H        -7.3352429124       -1.6347485314       -0.6573291988
 H        -8.1040038240       -3.2411544588       -0.2931938171
 H        -7.9778247756       -2.0702164527        1.7741283941
 H        -9.6190455021       -1.8831626669        1.1955014369
 H       -11.7283413986        0.0942604876        3.1098860840
 H       -11.7675261495       -0.5147054426        1.4164508455
 H       -13.9084021119        0.7346942596        1.6621351965
 H       -12.8402229120        1.5298646543        0.5827382876
 H       -13.1806502172        5.6931602794        3.6905335164
 H       -13.0578797659        6.9375444103        2.6528778709
 H       -10.6846777453        4.8965222571        2.7726867887
 H       -10.8543144593        5.8825176260        4.1466201094
 H        -5.9311590210        6.6893068711        1.3701237962
 H        -6.4248690724        8.3048848992        1.7475491585
 H        -6.7175437437        7.1617071366       -1.1842969666
 H        -5.6019169745        8.4590602363       -0.7063108281
 H        -8.0519315763        7.4695512610       -4.2531404640
 H        -9.5934225629        8.1906916194       -4.7191595422
 H       -10.3835480538        6.1039237829       -4.7323424054
 H       -10.3532098770        6.0934260116       -3.0569509897
 H        -8.4464403289        1.9712782400       -1.2492436399
 H        -9.0262742917        3.0098581900       -0.0088280580
 H        -7.6418020337        3.5395770199       -0.8327059755
 H       -10.9614431812        3.0104992031       -3.6966836185
 H        -9.8744975051        2.2794215465       -5.0613250331
 H       -10.5133156110        3.9138227084       -5.1019540370
 H        -7.3895613917        2.7529252540       -4.8352764306
 H        -7.8987999065        1.6946416496       -3.5494444889
 H        -6.8314899564        3.1871523249       -3.2388063847
 H        -8.9627660194       10.9973303942       -3.2485084401
 H        -8.3121522542       11.4416736906       -1.7546016033
 H        -9.8367119711       10.4395991390       -1.8223177074
 H        -6.3307855047        8.3458693387       -3.0519721129
 H        -6.1155213384       10.0605793704       -2.7328593208
 H        -6.9639622960        9.5959404973       -4.0507757409
 H        -9.1715882296        8.8135571706        4.0837221857
 H        -8.4392720999        9.4753876746        2.5584589205
 H        -7.4778659981        8.4855575704        3.6671878871
 H        -8.5599372770        5.1366288039        3.5233976655
 H        -8.7265335753        6.2603204489        4.7417304738
 H        -7.2163310794        6.2789442141        3.8859597737
 H       -15.3209821570        4.0250593425        0.0549089247
 H       -15.3652753165        2.4361269191        0.8570353490
 H       -14.0801366059        2.8540161522       -0.0681321270
 H       -15.5902670635        4.9417176718        2.6478569133
 H       -14.5774461783        4.2028784822        4.0615579002
 H       -15.7891987002        3.3577080088        3.0696573379
 H        -8.1187354871       -0.3572972052        3.9607416719
 H        -9.6620109043       -0.9352808612        3.5291763960
 H        -9.4439152056        0.5158083938        4.5299384218
 H        -8.2346374176        2.8064660293        1.8938305205
 H        -7.2440133967        1.8682851496        3.1537038085
 H        -8.8596979418        2.5600660976        3.5819537899
 H       -10.7108619213       -4.8752311574       -2.1489239440
 H        -9.7570699149       -4.4889694320       -0.8140103030
 H        -8.9597191691       -4.4401201753       -2.3875973884
 H       -11.5133439791       -3.0523139068       -3.8292074106
 H        -9.8945291986       -2.2663211350       -3.8883932082
 H       -11.2531093498       -1.2976067341       -3.2571680846
 Na      -10.6954762019        5.6716855001       -0.1691992042
