117

 C       -13.2554946050       -3.4323345627       -1.5195975332
 C       -11.9321013609       -2.8964244595       -0.9180913552
 O       -11.9070147239       -2.2885799454        0.1399733866
 C       -10.5794562570       -3.1518972093       -1.7521107498
 C        -9.6356998493       -2.0511750791       -1.0655626318
 O        -9.7210049954       -0.8778033497       -1.4152987436
 C        -8.7941198724       -2.4259734909        0.2235030768
 C        -9.3243397958       -1.6106180385        1.4353579099
 C        -8.6862647597       -0.2798180184        1.5280578691
 O        -7.7557319373        0.0890661027        0.8996679676
 C        -9.2910490213        0.7470877076        2.5386806917
 C       -10.5862447291        1.2003931708        1.8377274851
 O       -10.5114123830        2.2270810312        1.1269685272
 C       -11.9426201936        0.5704141586        2.0136776877
 C       -13.0497998657        1.5454817771        1.5242540286
 C       -13.0760722478        2.7859478295        2.3681992273
 O       -12.6194640009        2.8298149669        3.4699881669
 C       -14.1045634862        4.1104276313        1.8690993820
 C       -12.8891079300        5.1171268982        1.6899517377
 O       -12.3671790643        5.2114577567        0.5606601204
 C       -12.3617833649        5.8261455633        2.9479900032
 C       -10.8908328273        5.9053249781        3.2992058805
 C       -10.1895855706        6.9628403255        2.4123364148
 O       -10.7482668383        7.3541643051        1.4322833802
 C        -8.7929773643        7.5041039223        2.7381801044
 C        -7.9453106745        7.0769720524        1.5382448624
 O        -8.2112770836        6.0663867411        0.9703809475
 C        -6.6556516709        7.9285284523        1.1732591739
 C        -6.5980721127        8.0478141820       -0.4142090212
 C        -7.5557499724        9.1278634790       -1.0128730177
 O        -7.9753750543       10.0009520093       -0.2763342682
 C        -8.0190851923        9.0491096956       -2.4288085651
 C        -8.9982690949        7.8334231000       -2.6302232418
 O        -9.0875404906        7.0778890448       -1.6814089897
 C        -9.6393467516        7.5408100973       -3.9321566953
 C        -9.9509724622        6.0811101847       -4.1076829159
 C        -8.6641707687        5.3178825740       -4.0701334283
 O        -7.5672871040        5.8929426397       -3.8928229444
 C        -8.6892761780        3.7716257766       -3.8415060797
 C        -9.0726362652        3.8068326757       -2.2918071798
 O       -10.1494534136        4.2380403571       -2.0197296163
 C        -7.9802907164        3.3882292424       -1.2649365178
 C        -9.8385351057        3.0970197759       -4.6263933236
 C        -7.3486634635        3.0334004329       -4.0467993811
 C        -8.8846466004       10.2888033766       -2.8029528434
 C        -6.8553376774        8.8960327921       -3.4442330937
 C        -9.0250210998        9.0834611522        2.8371102034
 C        -8.0652107503        6.9137233844        4.0387825661
 C       -14.7454733861        3.9799837487        0.5223409396
 C       -15.1297701027        4.4633605236        2.9620748200
 C        -9.6307617781        0.0017929192        3.8549696148
 C        -8.2808913544        1.8938137167        2.5991713303
 C       -10.1969934290       -4.5756322535       -1.6054822063
 C       -10.7226258753       -2.7630831456       -3.2133482363
 H       -13.1022451931       -4.4881004778       -1.8136855608
 H       -13.4989570337       -2.7903795057       -2.3206295252
 H       -14.0029647072       -3.3289886181       -0.7021328406
 H        -7.7146288318       -2.0554990561        0.1352164450
 H        -8.7079453435       -3.5085843233        0.3982152067
 H        -8.9951508772       -2.2096445183        2.3210694983
 H       -10.4514500686       -1.7263569710        1.5446115073
 H       -12.0923580172        0.1967020159        3.0450819017
 H       -11.8534073726       -0.3310947161        1.3679969894
 H       -14.0540139849        1.0834532252        1.6102849331
 H       -12.9358371396        1.8056683176        0.4759702818
 H       -12.9103296948        5.3576471260        3.7274633705
 H       -12.7936238955        6.8158614312        2.9619155909
 H       -10.4282770787        4.9671420652        3.0627239032
 H       -10.7835143762        6.1203655056        4.3613128037
 H        -5.7718148777        7.4743997451        1.5424944862
 H        -6.7012046536        8.9634429714        1.4792767549
 H        -6.7413782142        7.0866812431       -0.8389806026
 H        -5.5513747699        8.3161216524       -0.6202319677
 H        -9.0271370155        7.9232064666       -4.7890446372
 H       -10.5548495863        8.1778651287       -3.9416158223
 H       -10.2987621366        5.9804297425       -5.1635422235
 H       -10.7078809225        5.8147271274       -3.3973218894
 H        -7.7425402736        2.3365662458       -1.4643784095
 H        -8.2998249378        3.4226959055       -0.2416665443
 H        -7.0795291583        3.9214704929       -1.2827843523
 H       -10.7836043305        3.6961697725       -4.5876350772
 H       -10.0738609137        2.2078447346       -4.1179041681
 H        -9.5062048801        2.9717415717       -5.6511461890
 H        -7.0783417491        3.1051373048       -5.0779389504
 H        -7.4069207592        1.9933713595       -3.8870138325
 H        -6.5241110223        3.4171573082       -3.4312667400
 H        -9.3442423665       10.1486595672       -3.7551000625
 H        -8.3647924342       11.1895322350       -2.7682099556
 H        -9.7076082390       10.3964926492       -2.0020234550
 H        -6.2080521719        8.1092781408       -3.2932869654
 H        -6.0907506653        9.6212422439       -3.4877815615
 H        -7.2779627741        8.7604736089       -4.4655933913
 H        -9.7835314818        9.3101791273        3.6150316361
 H        -9.3596302426        9.4231662392        1.8208931915
 H        -8.0767546774        9.6122746825        3.0870927602
 H        -7.9264000849        5.8375872432        3.9675063628
 H        -8.6083275239        7.1305453420        4.9588076718
 H        -6.9845816927        7.2482951880        4.0999835569
 H       -15.3845823981        4.8388492905        0.3243402908
 H       -15.5220862303        3.2587002516        0.5359480994
 H       -14.1732684707        3.9336940644       -0.3655030941
 H       -15.5782959537        5.4556309093        2.8478980033
 H       -14.5835277223        4.4267514940        3.9154028069
 H       -15.9072640017        3.7148377128        2.9174672738
 H        -8.7820924350       -0.4205241877        4.3173854367
 H       -10.4126012880       -0.8076549021        3.7740702249
 H       -10.0897245959        0.6510525526        4.6586097996
 H        -8.0660319128        2.1366539443        1.5821187746
 H        -7.4356363766        1.4776205788        3.1750503328
 H        -8.7556172591        2.8015778097        3.0198242811
 H       -10.9129150749       -5.2357339134       -2.0840510311
 H       -10.2297504516       -4.8251493478       -0.5274599344
 H        -9.2362191749       -4.8303607839       -2.0430386443
 H       -11.5198055814       -3.3586874982       -3.7264836292
 H        -9.7855864473       -2.8540679149       -3.8723522856
 H       -11.0665072357       -1.7284666075       -3.2275123557
 Na      -10.3721535798        5.5307656202       -0.2206108521
