117

 C       -13.3607798594       -3.6348046769       -1.5591227714
 C       -12.2055108501       -2.9083457403       -0.9165184918
 O       -12.3618416121       -2.1903768630        0.0538853617
 C       -10.7623564563       -3.2199108291       -1.5660718323
 C        -9.7861552585       -2.1735465627       -0.8509712670
 O        -9.6268284092       -1.0638763775       -1.3261643310
 C        -8.9271435006       -2.6311840531        0.4173842889
 C        -9.2414335997       -1.8165522574        1.6639535286
 C        -8.7569434659       -0.3804520265        1.6210659127
 O        -7.8127395101       -0.1553766163        0.9370215955
 C        -9.4773921300        0.6906238579        2.6273750077
 C       -10.5985951398        1.4243195186        1.8087961008
 O       -10.4998490711        2.5907485840        1.3991639414
 C       -11.9202993637        0.6741219269        1.7246918394
 C       -13.1060965116        1.6015171646        1.4027456955
 C       -13.2481919723        2.7315329868        2.4541745975
 O       -13.0921462948        2.4855734728        3.6095611954
 C       -14.0750014645        4.1298837270        1.9671881168
 C       -12.8619065472        5.0907085510        1.8093322937
 O       -12.2971401101        5.1296623522        0.6973088226
 C       -12.3930560053        5.9102340370        3.0191643325
 C       -10.8748952832        6.0917151551        3.2658705983
 C       -10.2800110176        7.1230014758        2.2490880359
 O       -10.8381132003        7.4966755387        1.2561912504
 C        -8.8483004644        7.7097565944        2.5893485243
 C        -7.7705036797        7.2765791574        1.3977364446
 O        -7.9412389364        6.2013059973        0.8968267951
 C        -6.6222815572        8.1219958015        1.0008324261
 C        -6.4800247360        8.1576739820       -0.5989124043
 C        -7.4784253375        9.2176143686       -1.1805766727
 O        -7.8566743667       10.1069721134       -0.4327074574
 C        -7.9864469491        9.0441505418       -2.6697110189
 C        -8.9637730656        7.7952296266       -2.7458530051
 O        -8.9938432525        7.0571308754       -1.7775736917
 C        -9.8611603260        7.6109432350       -4.0226313435
 C        -9.8512423515        6.1942370780       -4.5292172521
 C        -8.6164299395        5.4276357561       -4.0677494104
 O        -7.5135804444        5.9750466091       -3.8909089713
 C        -8.6650513181        3.8129959723       -3.7748782985
 C        -8.8993977461        3.6928278703       -2.2867744751
 O       -10.0270041974        3.7906707123       -1.8147850558
 C        -7.7535573042        3.3158674373       -1.3971314603
 C        -9.7757536026        3.0673064480       -4.5337419031
 C        -7.2847981641        3.3056583323       -4.2891711407
 C        -8.6736283753       10.3477438074       -3.1091461410
 C        -6.6163733982        8.7869065132       -3.4205655648
 C        -8.8806530756        9.3215138665        2.6136461759
 C        -8.2959970308        7.1919309145        3.9689165790
 C       -14.6975594588        3.9373979401        0.6204651534
 C       -15.1944803045        4.5271753692        3.0854926228
 C        -9.9885499559        0.0530736870        3.9116941488
 C        -8.3435557906        1.7966125082        2.8773916142
 C       -10.3290100937       -4.6858268485       -1.4248101602
 C       -10.7808981703       -2.9033418014       -3.0567924199
 H       -12.8988193792       -4.5257631453       -1.9661280548
 H       -13.7262557815       -3.0407425346       -2.4027406167
 H       -14.0832419386       -3.9562907497       -0.8138738292
 H        -7.8916212029       -2.4797407881        0.0707736607
 H        -9.0384489792       -3.6694924276        0.5881139851
 H        -8.8438695909       -2.3359938663        2.4947979461
 H       -10.3355256244       -2.0458751734        1.8493700580
 H       -12.0534794188        0.0868778648        2.6338512980
 H       -11.9138992317       -0.0777311238        0.9349142481
 H       -13.9649401521        0.9368173358        1.4658861330
 H       -13.0116184246        1.9727205801        0.3483987900
 H       -12.8455349251        5.4366282959        3.9294067722
 H       -12.9361051212        6.8687652101        2.9195592152
 H       -10.4152526598        5.0736731656        3.0982572760
 H       -10.7001008302        6.4200160996        4.2923676933
 H        -5.7114234106        7.5844985427        1.4732746909
 H        -6.7728941841        9.1580121683        1.3367189790
 H        -6.5818890728        7.0714882728       -0.9714109194
 H        -5.4529978948        8.4955643060       -0.8399491510
 H        -9.4295152488        8.2455788514       -4.8098867468
 H       -10.8752402402        7.9474805984       -3.9154544859
 H        -9.9352270429        6.3579123278       -5.5958652000
 H       -10.7290322488        5.7571231754       -4.1627595259
 H        -6.8016829211        2.8565228414       -1.8282427705
 H        -8.2162714978        2.6340119286       -0.6232923581
 H        -7.3614786695        4.1433047164       -0.8064657684
 H       -10.5364408138        2.7409258714       -3.7863302336
 H        -9.3743640637        2.2204232259       -4.9743637871
 H       -10.2626238121        3.7308165318       -5.3096481708
 H        -7.3189056802        3.4193620055       -5.4265485367
 H        -7.0477976136        2.2855820974       -4.0038956489
 H        -6.3786698008        3.8818298644       -3.9885436328
 H        -8.6278459462       10.3434136748       -4.1774029987
 H        -8.1398640302       11.1767864833       -2.6750011656
 H        -9.7794248845       10.4815391837       -2.8007819997
 H        -5.9635380776        7.9451397266       -3.2180292569
 H        -5.8612065384        9.5794141370       -3.2792847187
 H        -6.7146085460        8.7234023850       -4.5034503685
 H        -9.6591176772        9.6544994513        3.1971413621
 H        -8.9282600214        9.7223913763        1.6262492791
 H        -7.9953559907        9.6753010138        3.1210225999
 H        -8.1335244341        6.1096487661        4.0261568614
 H        -8.8920799366        7.5948098233        4.7454391846
 H        -7.3094666391        7.6253775618        4.1969864669
 H       -15.3988337443        4.7268053789        0.3132499985
 H       -15.4555077685        3.0972664576        0.5912645478
 H       -13.9578841949        3.7709063928       -0.1805301202
 H       -15.1541752812        5.6307734594        3.1322406448
 H       -14.7656919860        4.2566549933        4.0095328679
 H       -16.1842945693        4.0647677825        3.0095889501
 H        -9.2248019656       -0.4474624880        4.4931719187
 H       -10.5915437504       -0.7893932009        3.6141960360
 H       -10.6094393267        0.7168905114        4.5539479041
 H        -8.2429305054        2.3001519737        1.9450970950
 H        -7.4138499602        1.3096602916        3.2001431094
 H        -8.7125713028        2.4086790637        3.7047932706
 H       -10.7822215454       -5.1993115236       -2.2808208581
 H       -10.6915069585       -5.1332182592       -0.5027536377
 H        -9.3050106127       -4.9341518915       -1.5998177446
 H       -11.5104624723       -3.3765174141       -3.6663176824
 H        -9.8029862183       -3.1366570554       -3.4501572819
 H       -10.8676196064       -1.8768533017       -3.1767213433
 Na       -9.9147117845        5.1769537333        0.1387406871
