117

 C       -13.6114502228       -3.7160744158       -1.4276510075
 C       -12.2960487687       -3.0002323505       -0.8516535709
 O       -12.4448647500       -2.1880087990        0.0543668367
 C       -10.8720907184       -3.3213865517       -1.3796450641
 C       -10.0301670352       -2.2141875565       -0.6912382660
 O        -9.8540050940       -1.1723295839       -1.2738685545
 C        -9.4348131125       -2.5663570248        0.6985256494
 C        -9.7098514310       -1.7022341631        1.9435183428
 C        -9.0197963083       -0.3478448072        1.8541507587
 O        -8.1333542452       -0.0660360779        1.0719296369
 C        -9.4452451880        0.7619984855        2.8305035349
 C       -10.4110514490        1.6500119284        1.9329228433
 O        -9.9997212782        2.7713826842        1.5690362803
 C       -11.6729859995        1.0262030712        1.3014946535
 C       -12.7816576807        2.0860505226        0.9852227831
 C       -13.5861629162        2.6173572942        2.1866962432
 O       -13.7329139906        2.0708855054        3.2557779585
 C       -14.0321322581        4.2266287075        1.9891709700
 C       -12.7117181710        4.9714431668        1.8574918381
 O       -11.9934843881        4.8791749862        0.8797749196
 C       -12.3095168107        5.9493002774        2.9049068542
 C       -10.7300971164        6.1341494545        3.1327303175
 C       -10.2509168135        7.1903526113        2.1565347999
 O       -10.9335472814        7.3477713284        1.1291521796
 C        -8.9214565974        7.9558358684        2.2878575627
 C        -7.9184559731        7.3587094056        1.2506148833
 O        -8.0477687338        6.2538098563        0.7268798195
 C        -6.6026879300        8.0445464415        0.9528440886
 C        -6.4033646749        8.2452647871       -0.5765772589
 C        -7.3558847362        9.3527584604       -1.1169045841
 O        -7.8803503926       10.1655461774       -0.3898402690
 C        -7.7755129985        9.1489645675       -2.6357753866
 C        -8.8681610138        7.9333900964       -2.5388735062
 O        -9.0955580337        7.3499378597       -1.4935498809
 C        -9.6175452664        7.4894888005       -3.8695774383
 C        -9.8231084987        5.9523948103       -4.0315171213
 C        -8.5112651781        5.0926393084       -4.3016698030
 O        -7.4260997855        5.5848920696       -4.4297991625
 C        -8.5405270965        3.5841580641       -3.9999586931
 C        -8.5431914149        3.6029187511       -2.4094396559
 O        -9.5401069823        3.9560779370       -1.8761062323
 C        -7.2742109161        3.4075358569       -1.6388497634
 C        -9.8078004714        2.7341054937       -4.3938804846
 C        -7.3120469383        2.8650580903       -4.5424132854
 C        -8.5942055719       10.3712245740       -3.1369507468
 C        -6.6363252316        8.8229476149       -3.5384784984
 C        -9.0812548245        9.4774922570        2.0426939957
 C        -8.3316793511        7.6686304109        3.6704474902
 C       -14.9294196193        4.4414086013        0.6988715732
 C       -14.8620748318        4.6364113790        3.1893610737
 C       -10.1852639790        0.1773097162        4.1403638625
 C        -8.2260126695        1.6221289038        3.1577163142
 C       -10.4444767038       -4.8101696377       -1.0863238064
 C       -10.8937976443       -3.0709934165       -2.9373300761
 H       -13.4682720420       -4.7585338324       -1.7844738726
 H       -13.8042343259       -3.1400552352       -2.2920005862
 H       -14.4068134449       -3.7459669548       -0.6620050205
 H        -8.3575243363       -2.4567145899        0.5455964264
 H        -9.6387383106       -3.6211290006        0.8431305102
 H        -9.2115534920       -2.3124620093        2.7193913954
 H       -10.7631882793       -1.6240598080        2.2090686871
 H       -12.0729644122        0.2145680990        1.9467127970
 H       -11.2249807797        0.5075401910        0.4383604481
 H       -13.5341529502        1.6269674872        0.2988525781
 H       -12.3374302288        2.9897327647        0.6014003844
 H       -12.7343810045        5.8411233574        3.8986586913
 H       -12.6932244405        6.8807976930        2.4064472798
 H       -10.1850325363        5.1783870000        3.0282939476
 H       -10.5762756274        6.4667120217        4.1974813099
 H        -5.7998067148        7.3276188340        1.2542871162
 H        -6.4283689680        9.0948999033        1.4188016379
 H        -6.3857878066        7.3118731565       -1.1065325044
 H        -5.3011707313        8.6631790565       -0.6643777681
 H        -9.0103893732        7.7706120588       -4.7168979774
 H       -10.5783287990        8.0107200926       -3.9149502399
 H       -10.6147527111        5.8231897275       -4.7427135588
 H       -10.2560303065        5.7012572592       -3.0984705234
 H        -6.4049074701        3.6216290306       -2.2434640164
 H        -7.2260749085        2.4010651373       -1.1853497943
 H        -7.1521615965        4.1161489449       -0.7579274172
 H       -10.7235239488        3.2741469066       -4.2686297756
 H        -9.7055720764        1.7581785656       -3.8102108268
 H        -9.7592148924        2.3980947992       -5.3796582785
 H        -7.3494065561        2.8260971051       -5.6050282617
 H        -7.2180592159        1.7948949481       -4.1465063078
 H        -6.3257597828        3.3598190303       -4.3340001202
 H        -9.3045317320       10.1649808507       -3.9922840026
 H        -7.9596718008       11.2351787518       -3.3891419207
 H        -9.1704677230       10.5261981278       -2.2690607316
 H        -6.2918514856        7.8063936477       -3.4429843586
 H        -5.7878545534        9.4669697201       -3.4526051915
 H        -6.7374167332        8.9128252895       -4.6506287399
 H        -9.8972870609        9.8806525339        2.6844634111
 H        -9.3689423132        9.6536909988        1.0415150364
 H        -8.1929326998        9.9641423321        2.2879826206
 H        -8.2314267922        6.6094574627        3.6936151929
 H        -8.9620402936        7.9918172782        4.5130221762
 H        -7.3485336351        8.1828474331        3.8208150874
 H       -15.1138902606        5.5735733273        0.6476374050
 H       -15.8426055542        3.8615943725        0.7332726356
 H       -14.4898120174        4.0732329275       -0.2703149164
 H       -14.9368791997        5.7037939653        3.1853479100
 H       -14.5158534553        4.3104302345        4.2434376472
 H       -15.8958237516        4.3408864281        3.0552892251
 H        -9.6644332061       -0.6551758315        4.5545626702
 H       -11.2699734262       -0.0729540805        3.9746362923
 H       -10.1326620378        1.0124942910        4.8270479755
 H        -7.8019216702        1.8249147842        2.1873809952
 H        -7.5122914547        1.1710204969        3.8167989169
 H        -8.7082580509        2.4249815097        3.6751942176
 H       -11.0480129847       -5.5108033668       -1.6202827760
 H       -10.6338871074       -5.1202678886       -0.0403784549
 H        -9.3708225408       -4.9673721489       -1.2691116173
 H       -11.5397316010       -3.6984762341       -3.4768503784
 H        -9.9163298086       -3.2327747609       -3.3148413606
 H       -11.0978166336       -2.0508564006       -3.1885756242
 Na       -9.8544727893        4.8185829502        0.4040525338
