117

 C       -13.6536891718       -3.6851487224       -1.3284604556
 C       -12.4166386271       -3.0083769971       -0.7277480032
 O       -12.4880008950       -2.2654989758        0.2225808608
 C       -10.9600552833       -3.3381967532       -1.3566925192
 C       -10.0202743683       -2.2909530616       -0.6304395639
 O       -10.0243794447       -1.1321150767       -1.0134857097
 C        -9.3865460574       -2.6121514065        0.7399362908
 C        -9.9785155010       -1.6550238193        1.7723870172
 C        -9.1282641906       -0.3847251980        1.8437181022
 O        -8.1569856258       -0.1394350722        1.1370979993
 C        -9.4799439371        0.7871499323        2.8713379455
 C       -10.2937083227        1.8527499011        1.8816573468
 O        -9.8416166907        2.9549429832        1.6153917597
 C       -11.6481367948        1.2200309950        1.4200992631
 C       -12.7081867198        2.1338634251        0.8255184157
 C       -13.5370583352        2.7269273208        2.0214607468
 O       -13.9340825100        1.9669738157        2.8446283892
 C       -14.0839304472        4.2777698132        2.0245166571
 C       -12.7444460272        5.1112087076        1.9330830224
 O       -12.1715143113        5.1830229308        0.8333065119
 C       -12.2480267539        5.8469596254        3.0979497181
 C       -10.7996137935        6.2406484255        3.1464151189
 C       -10.2998381185        7.1432703420        2.0106923843
 O       -10.8897641411        7.3126654780        1.0036065635
 C        -8.8999840623        7.8925639645        2.2876491567
 C        -7.7726964637        7.3248740951        1.2777196666
 O        -7.9544535238        6.3008928902        0.6757891923
 C        -6.5528628292        8.1194830067        0.9819699841
 C        -6.2957545776        8.2787522485       -0.5734086436
 C        -7.3073665319        9.3256709062       -1.1739097569
 O        -7.5873520658       10.2922154988       -0.5057815963
 C        -7.8575950950        9.1241274891       -2.5782217276
 C        -8.8799732917        7.8707331675       -2.5995398313
 O        -9.0721978488        7.3369352788       -1.5457292378
 C        -9.3571541482        7.3715381497       -3.9575340756
 C        -9.7629900368        5.8411622617       -4.0183318106
 C        -8.5402884704        5.0238382784       -4.3202980150
 O        -7.5909440748        5.4434184284       -4.9528991788
 C        -8.5346137623        3.4634272033       -3.8673625035
 C        -8.3984170614        3.4697231787       -2.3037983515
 O        -9.3998323709        3.8125298678       -1.6459617122
 C        -7.0494370603        3.3504041726       -1.6377627907
 C        -9.8232324654        2.7724073785       -4.1904992351
 C        -7.3533872751        2.7440162719       -4.4749337945
 C        -8.6129709340       10.4414380273       -2.9652426469
 C        -6.6460355134        8.9063806861       -3.6341042463
 C        -9.3253028909        9.3361831898        1.9159465407
 C        -8.2947533056        7.9278647902        3.6866386892
 C       -14.8129528193        4.3836409163        0.6977653739
 C       -14.8755634607        4.4371428844        3.2857149922
 C       -10.3890602405        0.5291625060        4.0790947138
 C        -8.1340207588        1.4581139201        3.4717113495
 C       -10.5885770332       -4.8144966199       -1.0370495678
 C       -10.9092205637       -3.1653477843       -2.9183652985
 H       -13.3953853381       -4.7387613305       -1.3554433155
 H       -13.9237712310       -3.3691785735       -2.3598167335
 H       -14.4444398392       -3.5790706140       -0.5963654655
 H        -8.2829523966       -2.4566252410        0.5883169463
 H        -9.5985325179       -3.6761104754        0.9236464859
 H        -9.7937549558       -2.1475246237        2.7497031544
 H       -11.0874765126       -1.5568877806        1.6231871875
 H       -12.0907490834        0.6088632279        2.2118522664
 H       -11.3150263085        0.4702018736        0.6692035702
 H       -13.3483041830        1.4470233598        0.3249366368
 H       -12.2663197069        2.9416376898        0.2100379930
 H       -12.3760936300        5.2675675890        4.0124467597
 H       -12.8373412243        6.7434126265        3.0968302463
 H       -10.2196686241        5.3534968816        3.3754398124
 H       -10.7097743282        6.8181879914        4.0307091203
 H        -5.7151855010        7.6784527498        1.4996707910
 H        -6.6321880716        9.1002989459        1.3100814874
 H        -6.3789292651        7.2848774468       -1.0757264706
 H        -5.3320186341        8.5822362736       -0.7467365520
 H        -8.5775738207        7.4640924704       -4.7481137824
 H       -10.1759049581        8.0881827604       -4.1629600194
 H       -10.4636037573        5.6717438568       -4.8758811373
 H       -10.3961813758        5.6044206556       -3.1373318618
 H        -6.3813591953        4.1939033299       -1.9618369158
 H        -6.5375001770        2.3767337242       -1.7281313453
 H        -7.1726436570        3.4755265415       -0.5983355779
 H       -10.5923035273        3.1830790929       -3.4846115342
 H        -9.7078447757        1.7366357278       -4.1190937063
 H       -10.2125224553        2.9944889348       -5.2416714637
 H        -7.5782911253        2.3561054627       -5.4838493419
 H        -7.0459976904        1.9014859306       -3.9369962519
 H        -6.4789877178        3.3801889026       -4.5502750311
 H        -8.9086383074       10.3359815417       -3.9622725694
 H        -7.9050984437       11.2353613222       -2.9239381537
 H        -9.5189998183       10.6094804183       -2.2749172142
 H        -6.3781658069        7.8872752507       -3.7120512949
 H        -5.7334789345        9.4687247188       -3.4928677128
 H        -6.8474563420        9.1694453579       -4.6588792383
 H        -9.8534460277        9.7839597410        2.7033087370
 H       -10.0625208759        9.2963327118        1.1083004736
 H        -8.5086042305        9.9975499537        1.5653532217
 H        -8.0092934589        6.9051292891        3.9984078240
 H        -9.0704887877        8.1920779252        4.3973881855
 H        -7.4405165313        8.5970052013        3.6968814926
 H       -14.9436038790        5.4234260095        0.5725192810
 H       -15.7913397081        3.8490737678        0.7509428419
 H       -14.3402453647        4.0251423270       -0.2035796169
 H       -15.1625213368        5.4687168527        3.5536599938
 H       -14.2656126996        4.0749236851        4.0781739936
 H       -15.8510659925        3.9763393898        3.2293259587
 H        -9.8510366079       -0.0438463032        4.8756840489
 H       -11.2850617697        0.0504554722        3.7289618478
 H       -10.6785516582        1.5283361391        4.4790505647
 H        -7.4862989255        1.7051539573        2.6402361741
 H        -7.6500822402        0.6644166186        4.0694353519
 H        -8.4781709415        2.2610031364        4.1473097300
 H       -11.0654366766       -5.4924597240       -1.7609279073
 H       -11.0018480017       -5.2116356847       -0.1286303330
 H        -9.5298385650       -4.9463833213       -0.9785933128
 H       -11.7746436781       -3.7166206677       -3.3405147287
 H       -10.0470530398       -3.5644071798       -3.4898725554
 H       -11.0469931570       -2.1357066482       -3.2024003027
 Na       -9.7677901588        4.7804078788        0.2108924920
