117

 C       -13.6029433940       -3.7381872473       -1.3471252093
 C       -12.4223272888       -3.0465184580       -0.6656272335
 O       -12.6050704448       -2.3021071006        0.2891752207
 C       -11.0354210351       -3.3083864809       -1.2866814245
 C       -10.0828443138       -2.2634074498       -0.5854376388
 O       -10.0479282925       -1.1217740211       -0.9941233404
 C        -9.3922000067       -2.6104980555        0.8204021595
 C        -9.9375227246       -1.6290360729        1.8573576515
 C        -9.0805135140       -0.3487549237        1.9495895563
 O        -8.1699229445       -0.2533937130        1.1630586401
 C        -9.5532744445        0.8711839557        2.8530899728
 C       -10.2493420140        1.8532545525        1.9575251016
 O        -9.7925227914        2.9944056845        1.7114921034
 C       -11.5258692362        1.3124669574        1.3421289264
 C       -12.5868329785        2.2698670998        0.7590105755
 C       -13.6077990392        2.6414364719        1.8859718340
 O       -13.9512888335        1.8734143057        2.7676527955
 C       -14.0494625418        4.1541227425        1.9419878855
 C       -12.7212477536        5.0900560762        1.9262526895
 O       -12.1209083409        5.2142567666        0.8540072099
 C       -12.2508681798        5.8194257102        3.2679205793
 C       -10.7305297910        6.2518563205        3.2460147122
 C       -10.2303873756        7.1300671138        2.0553740791
 O       -10.7912827423        7.2816501515        0.9696975721
 C        -8.9403402049        7.9834730836        2.1985867664
 C        -7.8795843299        7.3605702367        1.1628791894
 O        -7.9365699677        6.2041270947        0.8140355984
 C        -6.5711176249        8.1570437105        0.9662249549
 C        -6.2503345504        8.3029009679       -0.5167062772
 C        -7.2296124021        9.3735038647       -1.2098212995
 O        -7.4219523495       10.3646594166       -0.5263526689
 C        -7.8501453564        9.1191807488       -2.6277463491
 C        -8.8016739216        7.8389587615       -2.6683035086
 O        -9.1304441385        7.2259242282       -1.6676650596
 C        -9.3105841979        7.3400093316       -4.0685659127
 C        -9.6780124296        5.8518238189       -3.9361270046
 C        -8.5184281990        4.9099979182       -4.4068179187
 O        -7.6347216199        5.2959094960       -5.1186686640
 C        -8.4820691504        3.4628029303       -3.8125660477
 C        -8.3298595767        3.5742008341       -2.2389853484
 O        -9.3516804037        3.6671410895       -1.6427261226
 C        -6.9625805725        3.3587609650       -1.6000861540
 C        -9.9272193666        2.8759729575       -4.1489167215
 C        -7.3259326266        2.7304332316       -4.5132385719
 C        -8.6913491021       10.3952022461       -2.9530974427
 C        -6.7161737684        8.8712071464       -3.5586518293
 C        -9.2966565867        9.4177729090        1.8092803000
 C        -8.2958137320        7.9379562504        3.5944570372
 C       -15.0008226459        4.4291317557        0.7099141173
 C       -14.8988926864        4.4698220154        3.1688270456
 C       -10.4795896034        0.4878018617        4.0188217078
 C        -8.2341257907        1.4624384271        3.4306384930
 C       -10.6919493631       -4.8226071696       -1.0240607502
 C       -10.9753417742       -3.1496252127       -2.8183510458
 H       -13.5272524085       -4.8639565882       -1.3648655350
 H       -13.7823912714       -3.3694639047       -2.3173368429
 H       -14.4278670351       -3.4544952352       -0.6527289386
 H        -8.3493231020       -2.4019536849        0.5679556909
 H        -9.5093342430       -3.6332531926        1.0342037198
 H        -9.9909696620       -2.1391726092        2.7624078627
 H       -10.9807902709       -1.3726133171        1.5513719814
 H       -11.9618408357        0.7026921070        2.1476054609
 H       -11.2263709784        0.5739031615        0.5997551540
 H       -13.0540334025        1.6924808502       -0.0338349564
 H       -12.0982818502        3.1942948540        0.4287460747
 H       -12.3421171826        5.0730890053        4.0675700713
 H       -12.8366538335        6.7375570719        3.4496001694
 H       -10.1344173664        5.3134995738        3.2512354973
 H       -10.4549805251        6.7237709675        4.1715982621
 H        -5.8104609677        7.5857407093        1.4508288427
 H        -6.5046958000        9.1410796158        1.4165385520
 H        -6.2662046530        7.3237876512       -0.8952502669
 H        -5.2117071704        8.6290971862       -0.6669127218
 H        -8.5639005480        7.3715460851       -4.8730389723
 H       -10.1411423872        7.9971786338       -4.2998737029
 H       -10.6987177897        5.6267681496       -4.4096976286
 H        -9.9406272778        5.7307148317       -2.8685233274
 H        -6.2882779596        4.1835943290       -1.6592231469
 H        -6.4743210098        2.4846571025       -1.9794897264
 H        -7.1558828278        3.1512128454       -0.5687491734
 H       -10.6472726603        3.2028186775       -3.3737016847
 H        -9.9129180978        1.7729767431       -4.2341732543
 H       -10.2738098487        3.2788313626       -5.0689264168
 H        -7.5887726724        2.4594108037       -5.4507834050
 H        -7.1043453917        1.7704652196       -4.0692521250
 H        -6.3661596356        3.2850881023       -4.5176868032
 H        -8.9966223795       10.3907525405       -3.9991042571
 H        -8.1326537803       11.2691222361       -2.7425328107
 H        -9.5552385873       10.2965773567       -2.2844901495
 H        -6.2359616440        7.9343308985       -3.4944862101
 H        -5.9407945186        9.6425696912       -3.4646944648
 H        -6.9436085217        9.0038590737       -4.6759111742
 H       -10.0460075118        9.8677322278        2.5480692857
 H        -9.8652920048        9.4297359998        0.8543980488
 H        -8.4294610610       10.0707701196        1.6639954594
 H        -8.1309762640        6.9087957886        3.8834979874
 H        -9.0182875482        8.2713466230        4.3156630758
 H        -7.3015926260        8.4858482818        3.5846662486
 H       -15.4462896557        5.4316145318        0.7762230770
 H       -15.7301918384        3.7120501359        0.9341202973
 H       -14.6936965766        4.2875255674       -0.3198257769
 H       -15.3596534593        5.4147674505        3.1057939309
 H       -14.2860678179        4.4581799200        4.1520662819
 H       -15.7580371960        3.8705288157        3.2203311035
 H        -9.8112336993        0.1364180068        4.7320505372
 H       -11.1512250327       -0.3134103102        3.6198585699
 H       -11.1058301524        1.3149879920        4.4346730452
 H        -7.5716717288        1.7113404924        2.6191319576
 H        -7.8212298549        0.5995976709        3.9781410528
 H        -8.5131827830        2.2800526488        4.1233527609
 H       -11.2998039778       -5.3917189168       -1.6938406177
 H       -11.0300355974       -5.2314475380       -0.0633675600
 H        -9.6515318304       -5.0617520678       -1.1204752808
 H       -11.7644569052       -3.7190531796       -3.3582498942
 H       -10.0156948433       -3.5701868252       -3.2650089810
 H       -11.0536991101       -2.0958463432       -3.1283466341
 Na       -9.8258748640        4.9746149526        0.2415164876
