117

 C       -13.6958339086       -3.8118535496       -1.3636779327
 C       -12.5599221322       -3.0509587541       -0.6653705374
 O       -12.6422761061       -2.3508740907        0.3371026581
 C       -11.0836282414       -3.3282568506       -1.2215882983
 C       -10.1524744626       -2.2482136370       -0.5072956772
 O       -10.0541816091       -1.1677585843       -1.0211892453
 C        -9.4973080282       -2.6250122998        0.8556589462
 C        -9.9005570130       -1.6868569014        1.9813384038
 C        -9.1143430765       -0.3054476960        1.8892158815
 O        -8.0780954270       -0.2421645141        1.2879102695
 C        -9.5527797369        0.8045350076        2.8845867855
 C       -10.2455557385        1.9169354720        1.9925044581
 O        -9.7972165645        3.0342582173        1.7876934348
 C       -11.4769371700        1.3299071831        1.1004239529
 C       -12.5349212250        2.4053910541        0.7556023043
 C       -13.4801750391        2.7315703551        1.8671470370
 O       -13.9362430258        1.8534861670        2.5610913556
 C       -14.0896556840        4.2216105636        1.9797952203
 C       -12.8119610133        5.0647701482        1.8741430870
 O       -12.1381337272        5.0676442463        0.8925228012
 C       -12.2396108109        5.6932672629        3.1590057219
 C       -10.7125729995        6.2412713030        3.1729182017
 C       -10.2517250207        7.2177271703        2.0885005567
 O       -10.8462760890        7.1869468973        0.9964084149
 C        -8.9324507248        8.0616162287        2.1312504307
 C        -7.8305716173        7.3490117299        1.2919917698
 O        -7.9505745043        6.1723591569        0.8975897174
 C        -6.5454986212        8.1284956519        0.9183851316
 C        -6.2887603215        8.2900762116       -0.5595690852
 C        -7.2197522029        9.3401895276       -1.1133996296
 O        -7.3215581083       10.4552686422       -0.6539729143
 C        -7.8369253836        9.0611587069       -2.5843938173
 C        -8.7075165323        7.8206496747       -2.6781524049
 O        -9.1037202780        7.1873430692       -1.7071575723
 C        -9.2535157594        7.3023411785       -4.0370756875
 C        -9.5298433465        5.8329406289       -3.9424312861
 C        -8.4387238168        4.9242911888       -4.3750541740
 O        -7.7108714006        5.2562809501       -5.3043522844
 C        -8.4851257464        3.4434627487       -3.7973091080
 C        -8.3308874952        3.4362098379       -2.2305268435
 O        -9.2933335212        3.6796508868       -1.5175630120
 C        -6.9795096007        3.3867778096       -1.6171197984
 C        -9.9017273385        2.8775910557       -4.1386186582
 C        -7.3896574054        2.6493489347       -4.5400950033
 C        -8.7785348196       10.2808931445       -2.9701328929
 C        -6.6990164467        8.9288710624       -3.5551555038
 C        -9.2066814764        9.5556109068        1.7128460423
 C        -8.2482757584        7.9546235298        3.5647319292
 C       -15.0193163394        4.5209273201        0.6885920205
 C       -14.9084726633        4.4531715754        3.2121928228
 C       -10.5534110001        0.3284483602        4.0237977675
 C        -8.2261654144        1.5498804492        3.4250617744
 C       -10.7039370452       -4.8002558450       -0.8980825086
 C       -11.0226988719       -3.0214849802       -2.6642179350
 H       -13.4875790160       -4.8999327984       -1.4186946002
 H       -13.7164599705       -3.3989572029       -2.3796531755
 H       -14.6703331317       -3.6185935148       -0.9000094273
 H        -8.4741504562       -2.5619970893        0.6298979843
 H        -9.7243778333       -3.6609257676        1.0120583618
 H        -9.6386694529       -2.2035767583        2.8940071719
 H       -10.9466621689       -1.5465595947        1.9431954009
 H       -11.8313359125        0.5112866079        1.7141661088
 H       -11.1256042963        0.8709669101        0.1784003727
 H       -13.1859011182        1.9568808743       -0.0381935670
 H       -11.9585932985        3.2492599668        0.4086095170
 H       -12.3888096865        4.9892023663        3.9851921457
 H       -12.7102698860        6.6921348335        3.3493565396
 H        -9.9757487268        5.4310401093        2.9936766369
 H       -10.4680972315        6.5733312262        4.2263519852
 H        -5.6519585412        7.6780861947        1.3832848665
 H        -6.4713347530        9.1907274880        1.3139195302
 H        -6.3347564182        7.3466569716       -1.0516302203
 H        -5.2181345890        8.6643797167       -0.7649019983
 H        -8.5396541186        7.3487425651       -4.8302258452
 H       -10.1558111420        7.8425628481       -4.3102719960
 H       -10.4300829009        5.6370129686       -4.5351584593
 H        -9.9127417860        5.6073527544       -2.9438400948
 H        -6.5776719990        4.3480511062       -1.7094361337
 H        -6.2866234005        2.7251127594       -2.0632712035
 H        -7.0635627442        3.1343672061       -0.5350201926
 H       -10.6441954844        3.1757878147       -3.4394544768
 H        -9.7989215053        1.7465415555       -4.0911068500
 H       -10.1974414382        3.1541015610       -5.1050460582
 H        -7.5436700737        2.5903131218       -5.6294845781
 H        -7.4035578258        1.5606217103       -4.3047323030
 H        -6.4195808973        2.9835259525       -4.2883636218
 H        -8.9954428764       10.1706844193       -4.0650801294
 H        -8.2078691750       11.2206286366       -2.8139503253
 H        -9.6157603616       10.2376943523       -2.3951444113
 H        -5.9220654459        8.0856242258       -3.4136805441
 H        -6.0966882663        9.8524393934       -3.6142014215
 H        -6.9772539284        8.8141079883       -4.5994018721
 H       -10.1217182611        9.8924575731        2.3085224845
 H        -9.4979339327        9.7375110315        0.6531849082
 H        -8.3490987389       10.2187592661        1.9094406252
 H        -8.1272661430        6.9279703078        3.8918058548
 H        -8.9130078616        8.3869870605        4.3340179481
 H        -7.2570874158        8.4046602645        3.4501865309
 H       -15.6724255714        5.4216297117        0.6810580712
 H       -15.5944010042        3.6217613502        0.6617018746
 H       -14.3875701383        4.5233566229       -0.2041846299
 H       -15.5800169118        5.2923052181        3.1371373491
 H       -14.4029197705        4.5012515525        4.1660234762
 H       -15.6939901208        3.6757053806        3.1922055870
 H        -9.8921784717        0.0926268366        4.8537644474
 H       -11.1270063701       -0.5100151604        3.6325730494
 H       -11.2435431597        1.0944475761        4.2983595639
 H        -7.6379441810        1.8346879610        2.5283819931
 H        -7.6840458524        0.8504112228        4.0230444682
 H        -8.6073293944        2.4166108582        3.9405630628
 H       -11.4405483395       -5.4479493536       -1.3150855309
 H       -10.7922932020       -5.0295978210        0.1668950363
 H        -9.6970330052       -5.1155390092       -1.2123820271
 H       -11.7135676179       -3.5795585390       -3.3066407851
 H       -10.0540650588       -3.2627045736       -3.0956835694
 H       -11.2003357319       -1.9128896246       -2.8216542214
 Na       -9.8987388485        5.1564550065        0.2760746105
